7I9O-ligand
  PyMOL3.1          3D                             0

 43 45  0  0  0  0  0  0  0  0999 V2000
   -6.2730    6.0500  -17.1460 N   0  0  0  0  0  0  0  0  0  0  0  0
   -3.4990    5.4760  -18.6260 C   0  0  0  0  0  0  0  0  0  0  0  0
   -7.0990    6.0550  -14.3110 O   0  0  0  0  0  0  0  0  0  0  0  0
   -4.5380    6.5640  -18.8150 C   0  0  0  0  0  0  0  0  0  0  0  0
   -9.0120    4.9590  -13.7500 N   0  0  0  0  0  0  0  0  0  0  0  0
   -4.5150    7.1350  -20.2150 C   0  0  0  0  0  0  0  0  0  0  0  0
   -8.7710    2.3750   -8.5460 N   0  0  0  0  0  0  0  0  0  0  0  0
   -5.9070    6.0940  -18.4100 C   0  0  0  0  0  0  0  0  0  0  0  0
   -6.8650    5.6470  -19.2580 N   0  0  0  0  0  0  0  0  0  0  0  0
   -7.5640    5.5280  -17.1570 C   0  0  0  0  0  0  0  0  0  0  0  0
   -8.4500    5.2570  -16.1010 C   0  0  0  0  0  0  0  0  0  0  0  0
   -8.1210    5.4600  -14.6470 C   0  0  0  0  0  0  0  0  0  0  0  0
   -8.9560    5.0500  -12.3320 C   0  0  0  0  0  0  0  0  0  0  0  0
   -8.5480    6.2320  -11.7240 C   0  0  0  0  0  0  0  0  0  0  0  0
   -8.5210    6.3200  -10.3420 C   0  0  0  0  0  0  0  0  0  0  0  0
   -8.9060    5.2420   -9.5640 C   0  0  0  0  0  0  0  0  0  0  0  0
   -9.3370    4.0640  -10.1520 C   0  0  0  0  0  0  0  0  0  0  0  0
   -9.8710    2.9500   -9.3090 C   0  0  0  0  0  0  0  0  0  0  0  0
   -9.3420    3.9720  -11.5420 C   0  0  0  0  0  0  0  0  0  0  0  0
   -9.7070    4.7560  -16.4440 C   0  0  0  0  0  0  0  0  0  0  0  0
  -10.0770    4.5240  -17.7650 C   0  0  0  0  0  0  0  0  0  0  0  0
   -9.1970    4.7720  -18.8060 C   0  0  0  0  0  0  0  0  0  0  0  0
   -7.9460    5.2760  -18.4760 C   0  0  0  0  0  0  0  0  0  0  0  0
   -3.9030    4.6950  -17.9820 H   0  0  0  0  0  0  0  0  0  0  0  0
   -3.2380    5.0500  -19.5950 H   0  0  0  0  0  0  0  0  0  0  0  0
   -4.2740    7.3840  -18.1470 H   0  0  0  0  0  0  0  0  0  0  0  0
   -9.8050    4.4660  -14.1350 H   0  0  0  0  0  0  0  0  0  0  0  0
   -3.7480    7.9070  -20.2790 H   0  0  0  0  0  0  0  0  0  0  0  0
   -4.2920    6.3410  -20.9280 H   0  0  0  0  0  0  0  0  0  0  0  0
   -2.6080    5.9020  -18.1640 H   0  0  0  0  0  0  0  0  0  0  0  0
   -5.4870    7.5700  -20.4470 H   0  0  0  0  0  0  0  0  0  0  0  0
   -9.0790    2.1810   -7.6040 H   0  0  0  0  0  0  0  0  0  0  0  0
   -8.4680    1.5170   -8.9850 H   0  0  0  0  0  0  0  0  0  0  0  0
   -6.8030    5.5950  -20.2650 H   0  0  0  0  0  0  0  0  0  0  0  0
   -8.2510    7.0860  -12.3330 H   0  0  0  0  0  0  0  0  0  0  0  0
   -8.1950    7.2440   -9.8640 H   0  0  0  0  0  0  0  0  0  0  0  0
   -8.8700    5.3210   -8.4770 H   0  0  0  0  0  0  0  0  0  0  0  0
  -10.6350    3.3300   -8.6310 H   0  0  0  0  0  0  0  0  0  0  0  0
  -10.3150    2.1860   -9.9470 H   0  0  0  0  0  0  0  0  0  0  0  0
   -9.6530    3.0420  -12.0180 H   0  0  0  0  0  0  0  0  0  0  0  0
  -10.4220    4.5390  -15.6510 H   0  0  0  0  0  0  0  0  0  0  0  0
  -11.0740    4.1420  -17.9840 H   0  0  0  0  0  0  0  0  0  0  0  0
   -9.4750    4.5790  -19.8420 H   0  0  0  0  0  0  0  0  0  0  0  0
  1  8  4  0  0  0  0
  1 10  4  0  0  0  0
  2  4  1  0  0  0  0
  2 24  1  0  0  0  0
  2 25  1  0  0  0  0
  2 30  1  0  0  0  0
  3 12  2  0  0  0  0
  4  6  1  0  0  0  0
  4  8  1  0  0  0  0
  4 26  1  0  0  0  0
  5 12  1  0  0  0  0
  5 13  1  0  0  0  0
  5 27  1  0  0  0  0
  6 28  1  0  0  0  0
  6 29  1  0  0  0  0
  6 31  1  0  0  0  0
  7 18  1  0  0  0  0
  7 32  1  0  0  0  0
  7 33  1  0  0  0  0
  8  9  4  0  0  0  0
  9 23  4  0  0  0  0
  9 34  1  0  0  0  0
 10 11  4  0  0  0  0
 10 23  4  0  0  0  0
 11 12  1  0  0  0  0
 11 20  4  0  0  0  0
 13 14  4  0  0  0  0
 13 19  4  0  0  0  0
 14 15  4  0  0  0  0
 14 35  1  0  0  0  0
 15 16  4  0  0  0  0
 15 36  1  0  0  0  0
 16 17  4  0  0  0  0
 16 37  1  0  0  0  0
 17 18  1  0  0  0  0
 17 19  4  0  0  0  0
 18 38  1  0  0  0  0
 18 39  1  0  0  0  0
 19 40  1  0  0  0  0
 20 21  4  0  0  0  0
 20 41  1  0  0  0  0
 21 22  4  0  0  0  0
 21 42  1  0  0  0  0
 22 23  4  0  0  0  0
 22 43  1  0  0  0  0
M  END
>  <pdb_header>
CRYST1   42.424   42.424  217.421  90.00  90.00  90.00 P 43 2 2      8


$$$$
