REMARK  Name = 7I9O-ligand
REMARK  7 active torsions:
REMARK  status: ('A' for Active; 'I' for Inactive)
REMARK    1  A    between atoms: C_2  and  C_4
REMARK    2  A    between atoms: C_4  and  C_6
REMARK    3  A    between atoms: C_4  and  C_8
REMARK    4  A    between atoms: N_5  and  C_13
REMARK    5  A    between atoms: N_7  and  C_18
REMARK    6  A    between atoms: C_11  and  C_12
REMARK    7  A    between atoms: C_17  and  C_18
REMARK                            x       y       z     vdW  Elec       q    Type
REMARK                         _______ _______ _______ _____ _____    ______ ____
ROOT
ATOM      1  O   UNL     1      -7.099   6.055 -14.311  0.00  0.00    +0.000 OA
ATOM      2  N   UNL     1      -9.012   4.959 -13.750  0.00  0.00    +0.000 N 
ATOM      3  C   UNL     1      -8.121   5.460 -14.647  0.00  0.00    +0.000 C 
ATOM      4  H   UNL     1      -9.805   4.466 -14.135  0.00  0.00    +0.000 HD
ENDROOT
BRANCH   3   9
ATOM      5  N   UNL     1      -6.273   6.050 -17.146  0.00  0.00    +0.000 NA
ATOM      6  C   UNL     1      -5.907   6.094 -18.410  0.00  0.00    +0.000 A 
ATOM      7  N   UNL     1      -6.865   5.647 -19.258  0.00  0.00    +0.000 N 
ATOM      8  C   UNL     1      -7.564   5.528 -17.157  0.00  0.00    +0.000 A 
ATOM      9  C   UNL     1      -8.450   5.257 -16.101  0.00  0.00    +0.000 A 
ATOM     10  C   UNL     1      -9.707   4.756 -16.444  0.00  0.00    +0.000 A 
ATOM     11  C   UNL     1     -10.077   4.524 -17.765  0.00  0.00    +0.000 A 
ATOM     12  C   UNL     1      -9.197   4.772 -18.806  0.00  0.00    +0.000 A 
ATOM     13  C   UNL     1      -7.946   5.276 -18.476  0.00  0.00    +0.000 A 
ATOM     14  H   UNL     1      -6.803   5.595 -20.265  0.00  0.00    +0.000 HD
BRANCH   6  16
ATOM     15  C   UNL     1      -3.499   5.476 -18.626  0.00  0.00    +0.000 C 
ATOM     16  C   UNL     1      -4.538   6.564 -18.815  0.00  0.00    +0.000 C 
ATOM     17  C   UNL     1      -4.515   7.135 -20.215  0.00  0.00    +0.000 C 
ENDBRANCH   6  16
ENDBRANCH   3   9
BRANCH   2  18
ATOM     18  C   UNL     1      -8.956   5.050 -12.332  0.00  0.00    +0.000 A 
ATOM     19  C   UNL     1      -8.548   6.232 -11.724  0.00  0.00    +0.000 A 
ATOM     20  C   UNL     1      -8.521   6.320 -10.342  0.00  0.00    +0.000 A 
ATOM     21  C   UNL     1      -8.906   5.242  -9.564  0.00  0.00    +0.000 A 
ATOM     22  C   UNL     1      -9.337   4.064 -10.152  0.00  0.00    +0.000 A 
ATOM     23  C   UNL     1      -9.342   3.972 -11.542  0.00  0.00    +0.000 A 
BRANCH  22  24
ATOM     24  C   UNL     1      -9.871   2.950  -9.309  0.00  0.00    +0.000 C 
BRANCH  24  25
ATOM     25  N   UNL     1      -8.771   2.375  -8.546  0.00  0.00    +0.000 NA
ATOM     26  H   UNL     1      -9.079   2.181  -7.604  0.00  0.00    +0.000 HD
ATOM     27  H   UNL     1      -8.468   1.517  -8.985  0.00  0.00    +0.000 HD
ENDBRANCH  24  25
ENDBRANCH  22  24
ENDBRANCH   2  18
TORSDOF 5
