
 OpenBabel10312511343D

 27 29  0  0  0  0  0  0  0  0999 V2000
   -9.9890    6.1680  -14.4920 O   0  0  0  0  0  0  0  0  0  0  0  0
   -8.1640    4.8660  -14.1040 N   0  0  0  0  0  0  0  0  0  0  0  0
   -9.0670    5.4750  -14.9180 C   0  0  0  0  0  0  0  0  0  0  0  0
   -7.4320    4.3410  -14.5610 H   0  0  0  0  0  0  0  0  0  0  0  0
   -6.4710    5.9930  -16.6510 N   0  0  0  0  0  0  0  0  0  0  0  0
   -5.6990    6.0110  -17.7170 C   0  0  0  0  0  0  0  0  0  0  0  0
   -6.3240    5.5670  -18.8350 N   0  0  0  0  0  0  0  0  0  0  0  0
   -7.6940    5.4940  -17.0930 C   0  0  0  0  0  0  0  0  0  0  0  0
   -8.8900    5.2550  -16.3960 C   0  0  0  0  0  0  0  0  0  0  0  0
   -9.9680    4.7700  -17.1390 C   0  0  0  0  0  3  0  0  0  0  0  0
   -9.8750    4.5240  -18.5050 C   0  0  0  0  0  3  0  0  0  0  0  0
   -8.6900    4.7400  -19.1890 C   0  0  0  0  0  3  0  0  0  0  0  0
   -7.6140    5.2270  -18.4610 C   0  0  0  0  0  0  0  0  0  0  0  0
   -5.9270    5.4980  -19.7610 H   0  0  0  0  0  0  0  0  0  0  0  0
   -3.7330    6.3660  -16.2220 C   0  0  0  0  0  1  0  0  0  0  0  0
   -4.2640    6.4500  -17.6400 C   0  0  0  0  0  3  0  0  0  0  0  0
   -3.3820    5.7130  -18.6220 C   0  0  0  0  0  1  0  0  0  0  0  0
   -8.1320    4.8820  -12.6820 C   0  0  0  0  0  0  0  0  0  0  0  0
   -7.3470    5.8140  -12.0120 C   0  0  0  0  0  3  0  0  0  0  0  0
   -7.3420    5.8400  -10.6270 C   0  0  0  0  0  3  0  0  0  0  0  0
   -8.1200    4.9490   -9.9080 C   0  0  0  0  0  3  0  0  0  0  0  0
   -8.9250    4.0290  -10.5580 C   0  0  0  0  0  0  0  0  0  0  0  0
   -8.9110    3.9920  -11.9510 C   0  0  0  0  0  3  0  0  0  0  0  0
   -9.8580    3.1570   -9.7780 C   0  0  0  0  0  2  0  0  0  0  0  0
   -9.0790    2.3790   -8.8240 N   0  0  0  0  0  0  0  0  0  0  0  0
   -9.5660    2.3430   -7.9410 H   0  0  0  0  0  0  0  0  0  0  0  0
   -8.9520    1.4410   -9.1780 H   0  0  0  0  0  0  0  0  0  0  0  0
  2 18  1  0  0  0  0
  3  1  2  0  0  0  0
  3  2  1  0  0  0  0
  4  2  1  0  0  0  0
  6 16  1  0  0  0  0
  6  5  2  0  0  0  0
  7 13  1  0  0  0  0
  7  6  1  0  0  0  0
  8  5  1  0  0  0  0
  8  9  1  0  0  0  0
  9  3  1  0  0  0  0
 10  9  2  0  0  0  0
 11 10  1  0  0  0  0
 12 11  2  0  0  0  0
 12 13  1  0  0  0  0
 13  8  2  0  0  0  0
 14  7  1  0  0  0  0
 16 15  1  0  0  0  0
 17 16  1  0  0  0  0
 18 19  2  0  0  0  0
 18 23  1  0  0  0  0
 19 20  1  0  0  0  0
 20 21  2  0  0  0  0
 22 21  1  0  0  0  0
 22 24  1  0  0  0  0
 23 22  2  0  0  0  0
 24 25  1  0  0  0  0
 25 26  1  0  0  0  0
 27 25  1  0  0  0  0
M  END
>  <minimizedAffinity>
-8.4329567

$$$$

 OpenBabel10312511343D

 27 29  0  0  0  0  0  0  0  0999 V2000
   -8.5940    7.1370  -13.7250 O   0  0  0  0  0  0  0  0  0  0  0  0
   -7.8360    5.1050  -14.4130 N   0  0  0  0  0  0  0  0  0  0  0  0
   -8.1680    6.0150  -13.4590 C   0  0  0  0  0  0  0  0  0  0  0  0
   -7.5200    4.2050  -14.0820 H   0  0  0  0  0  0  0  0  0  0  0  0
   -6.1870    3.8110  -12.3500 N   0  0  0  0  0  0  0  0  0  0  0  0
   -5.5620    3.0690  -11.4610 C   0  0  0  0  0  0  0  0  0  0  0  0
   -5.9660    3.3060  -10.1890 N   0  0  0  0  0  0  0  0  0  0  0  0
   -7.0640    4.6040  -11.6130 C   0  0  0  0  0  0  0  0  0  0  0  0
   -7.9810    5.5830  -12.0300 C   0  0  0  0  0  0  0  0  0  0  0  0
   -8.7510    6.1910  -11.0360 C   0  0  0  0  0  3  0  0  0  0  0  0
   -8.6210    5.8580   -9.6910 C   0  0  0  0  0  3  0  0  0  0  0  0
   -7.7020    4.9070   -9.2770 C   0  0  0  0  0  3  0  0  0  0  0  0
   -6.9360    4.2930  -10.2590 C   0  0  0  0  0  0  0  0  0  0  0  0
   -5.6270    2.8520   -9.3530 H   0  0  0  0  0  0  0  0  0  0  0  0
   -3.9000    2.4520  -13.2170 C   0  0  0  0  0  1  0  0  0  0  0  0
   -4.4870    2.0990  -11.8650 C   0  0  0  0  0  3  0  0  0  0  0  0
   -3.4200    1.9460  -10.8040 C   0  0  0  0  0  1  0  0  0  0  0  0
   -7.8820    5.2760  -15.8240 C   0  0  0  0  0  0  0  0  0  0  0  0
   -6.7650    5.7450  -16.5070 C   0  0  0  0  0  3  0  0  0  0  0  0
   -6.8100    5.8840  -17.8840 C   0  0  0  0  0  3  0  0  0  0  0  0
   -7.9560    5.5510  -18.5850 C   0  0  0  0  0  3  0  0  0  0  0  0
   -9.0710    5.0610  -17.9240 C   0  0  0  0  0  0  0  0  0  0  0  0
   -9.0290    4.9440  -16.5370 C   0  0  0  0  0  3  0  0  0  0  0  0
  -10.2590    4.5850  -18.6970 C   0  0  0  0  0  2  0  0  0  0  0  0
  -11.4330    5.3250  -18.2510 N   0  0  0  0  0  0  0  0  0  0  0  0
  -12.0000    5.5710  -19.0490 H   0  0  0  0  0  0  0  0  0  0  0  0
  -11.9720    4.7520  -17.6170 H   0  0  0  0  0  0  0  0  0  0  0  0
  1  3  2  0  0  0  0
  2  4  1  0  0  0  0
  2  3  1  0  0  0  0
  3  9  1  0  0  0  0
  5  8  1  0  0  0  0
  5  6  2  0  0  0  0
  6  7  1  0  0  0  0
  7 14  1  0  0  0  0
  8 13  1  0  0  0  0
  9  8  2  0  0  0  0
  9 10  1  0  0  0  0
 10 11  2  0  0  0  0
 11 12  1  0  0  0  0
 13  7  1  0  0  0  0
 13 12  2  0  0  0  0
 15 16  1  0  0  0  0
 16  6  1  0  0  0  0
 16 17  1  0  0  0  0
 18  2  1  0  0  0  0
 19 18  1  0  0  0  0
 20 19  2  0  0  0  0
 21 22  2  0  0  0  0
 21 20  1  0  0  0  0
 22 23  1  0  0  0  0
 23 18  2  0  0  0  0
 24 25  1  0  0  0  0
 24 22  1  0  0  0  0
 25 27  1  0  0  0  0
 26 25  1  0  0  0  0
M  END
>  <minimizedAffinity>
-7.7552228

$$$$

 OpenBabel10312511343D

 27 29  0  0  0  0  0  0  0  0999 V2000
   -6.9950    6.3690  -14.6210 O   0  0  0  0  0  0  0  0  0  0  0  0
   -8.1190    4.4880  -14.0090 N   0  0  0  0  0  0  0  0  0  0  0  0
   -7.7310    5.4280  -14.9120 C   0  0  0  0  0  0  0  0  0  0  0  0
   -8.7040    3.7440  -14.3610 H   0  0  0  0  0  0  0  0  0  0  0  0
   -6.1460    5.7960  -17.6250 N   0  0  0  0  0  0  0  0  0  0  0  0
   -5.9360    5.7980  -18.9250 C   0  0  0  0  0  0  0  0  0  0  0  0
   -7.0370    5.4700  -19.6430 N   0  0  0  0  0  0  0  0  0  0  0  0
   -7.4820    5.4320  -17.4720 C   0  0  0  0  0  0  0  0  0  0  0  0
   -8.2580    5.2680  -16.3120 C   0  0  0  0  0  0  0  0  0  0  0  0
   -9.5980    4.9210  -16.4920 C   0  0  0  0  0  3  0  0  0  0  0  0
  -10.1520    4.7370  -17.7550 C   0  0  0  0  0  3  0  0  0  0  0  0
   -9.3830    4.8790  -18.8990 C   0  0  0  0  0  3  0  0  0  0  0  0
   -8.0500    5.2300  -18.7310 C   0  0  0  0  0  0  0  0  0  0  0  0
   -7.1050    5.4120  -20.6500 H   0  0  0  0  0  0  0  0  0  0  0  0
   -3.4720    5.7240  -18.5370 C   0  0  0  0  0  1  0  0  0  0  0  0
   -4.5810    6.1020  -19.5000 C   0  0  0  0  0  3  0  0  0  0  0  0
   -4.3820    5.4840  -20.8660 C   0  0  0  0  0  1  0  0  0  0  0  0
   -7.7970    4.4330  -12.6250 C   0  0  0  0  0  0  0  0  0  0  0  0
   -8.4990    5.2120  -11.7120 C   0  0  0  0  0  3  0  0  0  0  0  0
   -8.1950    5.1330  -10.3640 C   0  0  0  0  0  3  0  0  0  0  0  0
   -7.2030    4.2760   -9.9180 C   0  0  0  0  0  3  0  0  0  0  0  0
   -6.5080    3.4760  -10.8100 C   0  0  0  0  0  0  0  0  0  0  0  0
   -6.8020    3.5740  -12.1680 C   0  0  0  0  0  3  0  0  0  0  0  0
   -5.5280    2.4620  -10.3100 C   0  0  0  0  0  2  0  0  0  0  0  0
   -5.9980    1.1350  -10.6850 N   0  0  0  0  0  0  0  0  0  0  0  0
   -5.2180    0.5770  -10.9980 H   0  0  0  0  0  0  0  0  0  0  0  0
   -6.4310    0.6930   -9.8870 H   0  0  0  0  0  0  0  0  0  0  0  0
  2 18  1  0  0  0  0
  3  1  2  0  0  0  0
  3  2  1  0  0  0  0
  4  2  1  0  0  0  0
  5  8  1  0  0  0  0
  6  5  2  0  0  0  0
  7  6  1  0  0  0  0
  7 13  1  0  0  0  0
  8  9  1  0  0  0  0
  9  3  1  0  0  0  0
 10  9  2  0  0  0  0
 11 10  1  0  0  0  0
 12 13  1  0  0  0  0
 12 11  2  0  0  0  0
 13  8  2  0  0  0  0
 14  7  1  0  0  0  0
 16  6  1  0  0  0  0
 16 15  1  0  0  0  0
 17 16  1  0  0  0  0
 18 23  2  0  0  0  0
 18 19  1  0  0  0  0
 19 20  2  0  0  0  0
 20 21  1  0  0  0  0
 22 24  1  0  0  0  0
 22 21  2  0  0  0  0
 23 22  1  0  0  0  0
 25 24  1  0  0  0  0
 25 27  1  0  0  0  0
 26 25  1  0  0  0  0
M  END
>  <minimizedAffinity>
-7.71277094

$$$$

 OpenBabel10312511343D

 27 29  0  0  0  0  0  0  0  0999 V2000
   -6.8440    8.0020  -19.9160 O   0  0  0  0  0  0  0  0  0  0  0  0
   -6.5130    5.7660  -19.6630 N   0  0  0  0  0  0  0  0  0  0  0  0
   -6.2990    6.9610  -20.2750 C   0  0  0  0  0  0  0  0  0  0  0  0
   -5.9940    4.9780  -20.0240 H   0  0  0  0  0  0  0  0  0  0  0  0
   -3.1460    7.2120  -20.2040 N   0  0  0  0  0  0  0  0  0  0  0  0
   -1.9130    7.2450  -20.6650 C   0  0  0  0  0  0  0  0  0  0  0  0
   -1.8460    7.1270  -22.0140 N   0  0  0  0  0  0  0  0  0  0  0  0
   -3.9530    7.0520  -21.3270 C   0  0  0  0  0  0  0  0  0  0  0  0
   -5.3500    6.9530  -21.4430 C   0  0  0  0  0  0  0  0  0  0  0  0
   -5.8690    6.8270  -22.7330 C   0  0  0  0  0  3  0  0  0  0  0  0
   -5.0540    6.7930  -23.8600 C   0  0  0  0  0  3  0  0  0  0  0  0
   -3.6750    6.8710  -23.7450 C   0  0  0  0  0  3  0  0  0  0  0  0
   -3.1490    7.0020  -22.4670 C   0  0  0  0  0  0  0  0  0  0  0  0
   -1.0090    7.1300  -22.5790 H   0  0  0  0  0  0  0  0  0  0  0  0
   -0.8350    6.3920  -18.5830 C   0  0  0  0  0  1  0  0  0  0  0  0
   -0.7320    7.3620  -19.7430 C   0  0  0  0  0  3  0  0  0  0  0  0
    0.5850    7.2370  -20.4740 C   0  0  0  0  0  1  0  0  0  0  0  0
   -7.3850    5.4970  -18.5720 C   0  0  0  0  0  0  0  0  0  0  0  0
   -6.9830    5.7780  -17.2710 C   0  0  0  0  0  3  0  0  0  0  0  0
   -7.8490    5.5370  -16.2170 C   0  0  0  0  0  3  0  0  0  0  0  0
   -9.1130    5.0260  -16.4530 C   0  0  0  0  0  3  0  0  0  0  0  0
   -9.5400    4.7610  -17.7440 C   0  0  0  0  0  0  0  0  0  0  0  0
   -8.6590    4.9850  -18.7990 C   0  0  0  0  0  3  0  0  0  0  0  0
  -10.9490    4.3310  -18.0010 C   0  0  0  0  0  2  0  0  0  0  0  0
  -11.6820    5.4540  -18.5720 N   0  0  0  0  0  0  0  0  0  0  0  0
  -12.2790    5.1230  -19.3160 H   0  0  0  0  0  0  0  0  0  0  0  0
  -12.2460    5.8880  -17.8550 H   0  0  0  0  0  0  0  0  0  0  0  0
  2 18  1  0  0  0  0
  3  1  2  0  0  0  0
  3  2  1  0  0  0  0
  4  2  1  0  0  0  0
  6  5  2  0  0  0  0
  6 16  1  0  0  0  0
  7  6  1  0  0  0  0
  8  5  1  0  0  0  0
  9  8  1  0  0  0  0
  9  3  1  0  0  0  0
 10  9  2  0  0  0  0
 11 12  2  0  0  0  0
 11 10  1  0  0  0  0
 12 13  1  0  0  0  0
 13  7  1  0  0  0  0
 13  8  2  0  0  0  0
 14  7  1  0  0  0  0
 16 15  1  0  0  0  0
 17 16  1  0  0  0  0
 18 19  1  0  0  0  0
 19 20  2  0  0  0  0
 21 20  1  0  0  0  0
 22 21  2  0  0  0  0
 23 18  2  0  0  0  0
 23 22  1  0  0  0  0
 24 22  1  0  0  0  0
 25 24  1  0  0  0  0
 25 27  1  0  0  0  0
 26 25  1  0  0  0  0
M  END
>  <minimizedAffinity>
-7.4530406

$$$$

 OpenBabel10312511343D

 27 29  0  0  0  0  0  0  0  0999 V2000
   -6.9580    7.9270  -19.6400 O   0  0  0  0  0  0  0  0  0  0  0  0
   -6.7290    5.6650  -19.5620 N   0  0  0  0  0  0  0  0  0  0  0  0
   -6.3860    6.9030  -20.0090 C   0  0  0  0  0  0  0  0  0  0  0  0
   -6.1760    4.8950  -19.9120 H   0  0  0  0  0  0  0  0  0  0  0  0
   -3.2810    6.8850  -19.4060 N   0  0  0  0  0  0  0  0  0  0  0  0
   -1.9890    6.8760  -19.6580 C   0  0  0  0  0  0  0  0  0  0  0  0
   -1.7040    6.9270  -20.9820 N   0  0  0  0  0  0  0  0  0  0  0  0
   -3.8970    6.9370  -20.6540 C   0  0  0  0  0  0  0  0  0  0  0  0
   -5.2580    6.9680  -21.0010 C   0  0  0  0  0  0  0  0  0  0  0  0
   -5.5600    7.0520  -22.3610 C   0  0  0  0  0  3  0  0  0  0  0  0
   -4.5710    7.0960  -23.3390 C   0  0  0  0  0  3  0  0  0  0  0  0
   -3.2290    7.0460  -22.9990 C   0  0  0  0  0  3  0  0  0  0  0  0
   -2.9170    6.9680  -21.6480 C   0  0  0  0  0  0  0  0  0  0  0  0
   -0.7850    6.9340  -21.4020 H   0  0  0  0  0  0  0  0  0  0  0  0
    0.0140    7.9270  -18.6030 C   0  0  0  0  0  1  0  0  0  0  0  0
   -0.9740    6.7770  -18.5540 C   0  0  0  0  0  3  0  0  0  0  0  0
   -1.6150    6.6380  -17.1920 C   0  0  0  0  0  1  0  0  0  0  0  0
   -7.7760    5.3290  -18.6600 C   0  0  0  0  0  0  0  0  0  0  0  0
   -8.9320    4.7170  -19.1310 C   0  0  0  0  0  3  0  0  0  0  0  0
   -9.9360    4.3710  -18.2410 C   0  0  0  0  0  3  0  0  0  0  0  0
   -9.7900    4.6210  -16.8880 C   0  0  0  0  0  3  0  0  0  0  0  0
   -8.6350    5.2090  -16.3990 C   0  0  0  0  0  0  0  0  0  0  0  0
   -7.6370    5.5760  -17.2990 C   0  0  0  0  0  3  0  0  0  0  0  0
   -8.4310    5.3610  -14.9250 C   0  0  0  0  0  2  0  0  0  0  0  0
   -9.7340    5.3770  -14.2730 N   0  0  0  0  0  0  0  0  0  0  0  0
   -9.6930    4.8300  -13.4250 H   0  0  0  0  0  0  0  0  0  0  0  0
   -9.9870    6.3290  -14.0480 H   0  0  0  0  0  0  0  0  0  0  0  0
  2 18  1  0  0  0  0
  3  1  2  0  0  0  0
  3  2  1  0  0  0  0
  4  2  1  0  0  0  0
  6  5  2  0  0  0  0
  6 16  1  0  0  0  0
  7  6  1  0  0  0  0
  8  5  1  0  0  0  0
  9  8  1  0  0  0  0
  9  3  1  0  0  0  0
 10  9  2  0  0  0  0
 11 12  2  0  0  0  0
 11 10  1  0  0  0  0
 12 13  1  0  0  0  0
 13  7  1  0  0  0  0
 13  8  2  0  0  0  0
 14  7  1  0  0  0  0
 15 16  1  0  0  0  0
 16 17  1  0  0  0  0
 18 23  1  0  0  0  0
 19 18  2  0  0  0  0
 19 20  1  0  0  0  0
 20 21  2  0  0  0  0
 21 22  1  0  0  0  0
 22 24  1  0  0  0  0
 23 22  2  0  0  0  0
 24 25  1  0  0  0  0
 25 27  1  0  0  0  0
 25 26  1  0  0  0  0
M  END
>  <minimizedAffinity>
-7.16995287

$$$$

 OpenBabel10312511343D

 27 29  0  0  0  0  0  0  0  0999 V2000
   -5.9280    7.1100  -19.2940 O   0  0  0  0  0  0  0  0  0  0  0  0
   -6.5400    5.4190  -20.6890 N   0  0  0  0  0  0  0  0  0  0  0  0
   -6.6130    6.1150  -19.5220 C   0  0  0  0  0  0  0  0  0  0  0  0
   -7.1660    4.6320  -20.7800 H   0  0  0  0  0  0  0  0  0  0  0  0
   -6.2110    5.9530  -16.3890 N   0  0  0  0  0  0  0  0  0  0  0  0
   -6.5180    5.7260  -15.1290 C   0  0  0  0  0  0  0  0  0  0  0  0
   -7.7640    5.2180  -14.9680 N   0  0  0  0  0  0  0  0  0  0  0  0
   -7.3380    5.5770  -17.1140 C   0  0  0  0  0  0  0  0  0  0  0  0
   -7.5860    5.6000  -18.4970 C   0  0  0  0  0  0  0  0  0  0  0  0
   -8.8250    5.1200  -18.9240 C   0  0  0  0  0  3  0  0  0  0  0  0
   -9.7830    4.6450  -18.0340 C   0  0  0  0  0  3  0  0  0  0  0  0
   -9.5480    4.6410  -16.6690 C   0  0  0  0  0  3  0  0  0  0  0  0
   -8.3160    5.1110  -16.2330 C   0  0  0  0  0  0  0  0  0  0  0  0
   -8.2050    4.9660  -14.0940 H   0  0  0  0  0  0  0  0  0  0  0  0
   -6.2160    5.8950  -12.6570 C   0  0  0  0  0  1  0  0  0  0  0  0
   -5.5610    6.0510  -14.0160 C   0  0  0  0  0  3  0  0  0  0  0  0
   -4.2710    5.2700  -14.1180 C   0  0  0  0  0  1  0  0  0  0  0  0
   -5.6810    5.6720  -21.7940 C   0  0  0  0  0  0  0  0  0  0  0  0
   -4.4130    5.1050  -21.8360 C   0  0  0  0  0  3  0  0  0  0  0  0
   -3.5930    5.3350  -22.9290 C   0  0  0  0  0  3  0  0  0  0  0  0
   -4.0330    6.1190  -23.9810 C   0  0  0  0  0  3  0  0  0  0  0  0
   -5.3020    6.6740  -23.9670 C   0  0  0  0  0  0  0  0  0  0  0  0
   -6.1150    6.4580  -22.8560 C   0  0  0  0  0  3  0  0  0  0  0  0
   -5.8170    7.4130  -25.1600 C   0  0  0  0  0  2  0  0  0  0  0  0
   -7.2620    7.2370  -25.2300 N   0  0  0  0  0  0  0  0  0  0  0  0
   -7.6970    8.1120  -25.4840 H   0  0  0  0  0  0  0  0  0  0  0  0
   -7.4830    6.5360  -25.9230 H   0  0  0  0  0  0  0  0  0  0  0  0
  2  3  1  0  0  0  0
  3  1  2  0  0  0  0
  3  9  1  0  0  0  0
  4  2  1  0  0  0  0
  5  6  2  0  0  0  0
  6  7  1  0  0  0  0
  6 16  1  0  0  0  0
  7 14  1  0  0  0  0
  8  5  1  0  0  0  0
  8 13  1  0  0  0  0
  9  8  2  0  0  0  0
 10  9  1  0  0  0  0
 10 11  2  0  0  0  0
 11 12  1  0  0  0  0
 12 13  2  0  0  0  0
 13  7  1  0  0  0  0
 16 15  1  0  0  0  0
 17 16  1  0  0  0  0
 18  2  1  0  0  0  0
 19 18  1  0  0  0  0
 20 19  2  0  0  0  0
 21 22  2  0  0  0  0
 21 20  1  0  0  0  0
 22 23  1  0  0  0  0
 23 18  2  0  0  0  0
 24 22  1  0  0  0  0
 25 24  1  0  0  0  0
 26 25  1  0  0  0  0
 27 25  1  0  0  0  0
M  END
>  <minimizedAffinity>
-7.12816238

$$$$

 OpenBabel10312511343D

 27 29  0  0  0  0  0  0  0  0999 V2000
   -9.0440    7.0270  -14.1200 O   0  0  0  0  0  0  0  0  0  0  0  0
   -8.1440    5.0290  -14.7310 N   0  0  0  0  0  0  0  0  0  0  0  0
   -8.4680    5.9840  -13.8180 C   0  0  0  0  0  0  0  0  0  0  0  0
   -7.6950    4.1990  -14.3700 H   0  0  0  0  0  0  0  0  0  0  0  0
   -6.2670    3.9620  -12.7790 N   0  0  0  0  0  0  0  0  0  0  0  0
   -5.4990    3.3330  -11.9150 C   0  0  0  0  0  0  0  0  0  0  0  0
   -5.7400    3.6880  -10.6290 N   0  0  0  0  0  0  0  0  0  0  0  0
   -7.0700    4.8020  -12.0110 C   0  0  0  0  0  0  0  0  0  0  0  0
   -8.0750    5.7060  -12.3920 C   0  0  0  0  0  0  0  0  0  0  0  0
   -8.7310    6.3910  -11.3680 C   0  0  0  0  0  3  0  0  0  0  0  0
   -8.4100    6.2020  -10.0270 C   0  0  0  0  0  3  0  0  0  0  0  0
   -7.4060    5.3250   -9.6510 C   0  0  0  0  0  3  0  0  0  0  0  0
   -6.7510    4.6350  -10.6620 C   0  0  0  0  0  0  0  0  0  0  0  0
   -5.2750    3.3320   -9.8070 H   0  0  0  0  0  0  0  0  0  0  0  0
   -3.4890    2.9900  -13.3530 C   0  0  0  0  0  1  0  0  0  0  0  0
   -4.4470    2.3570  -12.3640 C   0  0  0  0  0  3  0  0  0  0  0  0
   -3.7230    1.7150  -11.2020 C   0  0  0  0  0  1  0  0  0  0  0  0
   -8.3660    5.0630  -16.1350 C   0  0  0  0  0  0  0  0  0  0  0  0
   -9.6030    4.7000  -16.6550 C   0  0  0  0  0  3  0  0  0  0  0  0
   -9.8190    4.7620  -18.0220 C   0  0  0  0  0  3  0  0  0  0  0  0
   -8.8130    5.1910  -18.8710 C   0  0  0  0  0  3  0  0  0  0  0  0
   -7.5820    5.5780  -18.3680 C   0  0  0  0  0  0  0  0  0  0  0  0
   -7.3620    5.4940  -16.9950 C   0  0  0  0  0  3  0  0  0  0  0  0
   -6.5450    6.1600  -19.2760 C   0  0  0  0  0  2  0  0  0  0  0  0
   -6.5890    5.4510  -20.5480 N   0  0  0  0  0  0  0  0  0  0  0  0
   -6.4890    6.1120  -21.3060 H   0  0  0  0  0  0  0  0  0  0  0  0
   -5.8360    4.7790  -20.5860 H   0  0  0  0  0  0  0  0  0  0  0  0
  1  3  2  0  0  0  0
  2  4  1  0  0  0  0
  2  3  1  0  0  0  0
  3  9  1  0  0  0  0
  5  8  1  0  0  0  0
  5  6  2  0  0  0  0
  6  7  1  0  0  0  0
  7 14  1  0  0  0  0
  8 13  1  0  0  0  0
  9  8  2  0  0  0  0
  9 10  1  0  0  0  0
 10 11  2  0  0  0  0
 11 12  1  0  0  0  0
 13  7  1  0  0  0  0
 13 12  2  0  0  0  0
 15 16  1  0  0  0  0
 16  6  1  0  0  0  0
 16 17  1  0  0  0  0
 18  2  1  0  0  0  0
 19 18  1  0  0  0  0
 20 19  2  0  0  0  0
 21 22  2  0  0  0  0
 21 20  1  0  0  0  0
 22 23  1  0  0  0  0
 23 18  2  0  0  0  0
 24 22  1  0  0  0  0
 25 24  1  0  0  0  0
 26 25  1  0  0  0  0
 27 25  1  0  0  0  0
M  END
>  <minimizedAffinity>
-7.09794617

$$$$

 OpenBabel10312511343D

 27 29  0  0  0  0  0  0  0  0999 V2000
   -9.7560    3.2190   -9.9870 O   0  0  0  0  0  0  0  0  0  0  0  0
   -7.7480    3.9330   -9.1930 N   0  0  0  0  0  0  0  0  0  0  0  0
   -9.0650    3.6260   -9.0560 C   0  0  0  0  0  0  0  0  0  0  0  0
   -7.2690    4.2350   -8.3570 H   0  0  0  0  0  0  0  0  0  0  0  0
   -8.8770    6.1890   -7.2100 N   0  0  0  0  0  0  0  0  0  0  0  0
   -9.0970    6.9600   -6.1660 C   0  0  0  0  0  0  0  0  0  0  0  0
   -9.8540    6.3630   -5.2130 N   0  0  0  0  0  0  0  0  0  0  0  0
   -9.5430    4.9980   -6.9330 C   0  0  0  0  0  0  0  0  0  0  0  0
   -9.6570    3.8170   -7.6860 C   0  0  0  0  0  0  0  0  0  0  0  0
  -10.3800    2.7700   -7.1120 C   0  0  0  0  0  3  0  0  0  0  0  0
  -10.9720    2.8780   -5.8580 C   0  0  0  0  0  3  0  0  0  0  0  0
  -10.8780    4.0490   -5.1230 C   0  0  0  0  0  3  0  0  0  0  0  0
  -10.1560    5.0950   -5.6820 C   0  0  0  0  0  0  0  0  0  0  0  0
  -10.1420    6.7640   -4.3320 H   0  0  0  0  0  0  0  0  0  0  0  0
   -9.0070    9.1750   -7.3100 C   0  0  0  0  0  1  0  0  0  0  0  0
   -8.5730    8.3670   -6.1030 C   0  0  0  0  0  3  0  0  0  0  0  0
   -8.9210    9.0550   -4.8030 C   0  0  0  0  0  1  0  0  0  0  0  0
   -6.9660    3.8790  -10.3800 C   0  0  0  0  0  0  0  0  0  0  0  0
   -7.1100    4.8590  -11.3560 C   0  0  0  0  0  3  0  0  0  0  0  0
   -6.3260    4.8130  -12.4970 C   0  0  0  0  0  3  0  0  0  0  0  0
   -5.3960    3.8020  -12.6670 C   0  0  0  0  0  3  0  0  0  0  0  0
   -5.2230    2.8300  -11.6950 C   0  0  0  0  0  0  0  0  0  0  0  0
   -6.0280    2.8680  -10.5590 C   0  0  0  0  0  3  0  0  0  0  0  0
   -4.1310    1.8160  -11.8260 C   0  0  0  0  0  2  0  0  0  0  0  0
   -4.3430    0.7730  -10.8320 N   0  0  0  0  0  0  0  0  0  0  0  0
   -4.1540   -0.1300  -11.2450 H   0  0  0  0  0  0  0  0  0  0  0  0
   -3.7220    0.9220  -10.0490 H   0  0  0  0  0  0  0  0  0  0  0  0
  1  3  2  0  0  0  0
  2  3  1  0  0  0  0
  2  4  1  0  0  0  0
  3  9  1  0  0  0  0
  5  8  1  0  0  0  0
  5  6  2  0  0  0  0
  6 16  1  0  0  0  0
  6  7  1  0  0  0  0
  7 14  1  0  0  0  0
  8 13  1  0  0  0  0
  9 10  1  0  0  0  0
  9  8  2  0  0  0  0
 10 11  2  0  0  0  0
 11 12  1  0  0  0  0
 13  7  1  0  0  0  0
 13 12  2  0  0  0  0
 15 16  1  0  0  0  0
 16 17  1  0  0  0  0
 18  2  1  0  0  0  0
 19 18  2  0  0  0  0
 20 19  1  0  0  0  0
 21 20  2  0  0  0  0
 21 22  1  0  0  0  0
 22 23  2  0  0  0  0
 23 18  1  0  0  0  0
 24 22  1  0  0  0  0
 24 25  1  0  0  0  0
 25 27  1  0  0  0  0
 26 25  1  0  0  0  0
M  END
>  <minimizedAffinity>
-6.85748148

$$$$

 OpenBabel10312511343D

 27 29  0  0  0  0  0  0  0  0999 V2000
   -6.6980    5.3870  -14.5550 O   0  0  0  0  0  0  0  0  0  0  0  0
   -8.8830    5.2320  -13.9390 N   0  0  0  0  0  0  0  0  0  0  0  0
   -7.8830    5.2660  -14.8600 C   0  0  0  0  0  0  0  0  0  0  0  0
   -9.8180    5.1040  -14.2990 H   0  0  0  0  0  0  0  0  0  0  0  0
   -6.1480    5.9160  -17.4250 N   0  0  0  0  0  0  0  0  0  0  0  0
   -5.8490    6.0140  -18.7030 C   0  0  0  0  0  0  0  0  0  0  0  0
   -6.8690    5.6520  -19.5190 N   0  0  0  0  0  0  0  0  0  0  0  0
   -7.4590    5.4470  -17.3910 C   0  0  0  0  0  0  0  0  0  0  0  0
   -8.2980    5.1550  -16.3020 C   0  0  0  0  0  0  0  0  0  0  0  0
   -9.5920    4.7240  -16.6000 C   0  0  0  0  0  3  0  0  0  0  0  0
  -10.0420    4.5790  -17.9090 C   0  0  0  0  0  3  0  0  0  0  0  0
   -9.2090    4.8470  -18.9830 C   0  0  0  0  0  3  0  0  0  0  0  0
   -7.9220    5.2830  -18.6980 C   0  0  0  0  0  0  0  0  0  0  0  0
   -6.8630    5.6520  -20.5290 H   0  0  0  0  0  0  0  0  0  0  0  0
   -3.5390    5.2710  -19.2890 C   0  0  0  0  0  1  0  0  0  0  0  0
   -4.4850    6.4500  -19.1590 C   0  0  0  0  0  3  0  0  0  0  0  0
   -4.5360    7.2790  -20.4230 C   0  0  0  0  0  1  0  0  0  0  0  0
   -8.7630    5.3550  -12.5280 C   0  0  0  0  0  0  0  0  0  0  0  0
   -8.9480    4.2450  -11.7120 C   0  0  0  0  0  3  0  0  0  0  0  0
   -8.8050    4.3690  -10.3400 C   0  0  0  0  0  3  0  0  0  0  0  0
   -8.4700    5.5890   -9.7780 C   0  0  0  0  0  3  0  0  0  0  0  0
   -8.2600    6.7010  -10.5770 C   0  0  0  0  0  0  0  0  0  0  0  0
   -8.4260    6.5770  -11.9540 C   0  0  0  0  0  3  0  0  0  0  0  0
   -7.7750    7.9820   -9.9760 C   0  0  0  0  0  2  0  0  0  0  0  0
   -7.4990    7.7580   -8.5630 N   0  0  0  0  0  0  0  0  0  0  0  0
   -6.6440    8.2320   -8.3080 H   0  0  0  0  0  0  0  0  0  0  0  0
   -8.2630    8.1180   -8.0090 H   0  0  0  0  0  0  0  0  0  0  0  0
  2 18  1  0  0  0  0
  3  1  2  0  0  0  0
  3  2  1  0  0  0  0
  4  2  1  0  0  0  0
  5  8  1  0  0  0  0
  6  5  2  0  0  0  0
  7  6  1  0  0  0  0
  7 13  1  0  0  0  0
  8  9  1  0  0  0  0
  9  3  1  0  0  0  0
 10  9  2  0  0  0  0
 11 10  1  0  0  0  0
 12 13  1  0  0  0  0
 12 11  2  0  0  0  0
 13  8  2  0  0  0  0
 14  7  1  0  0  0  0
 15 16  1  0  0  0  0
 16  6  1  0  0  0  0
 17 16  1  0  0  0  0
 18 23  2  0  0  0  0
 18 19  1  0  0  0  0
 19 20  2  0  0  0  0
 20 21  1  0  0  0  0
 22 24  1  0  0  0  0
 22 21  2  0  0  0  0
 23 22  1  0  0  0  0
 24 25  1  0  0  0  0
 25 26  1  0  0  0  0
 25 27  1  0  0  0  0
M  END
>  <minimizedAffinity>
-6.79832602

$$$$

 OpenBabel10312511343D

 27 29  0  0  0  0  0  0  0  0999 V2000
   -5.5560    7.4720  -18.1110 O   0  0  0  0  0  0  0  0  0  0  0  0
   -4.7630    5.7970  -16.7920 N   0  0  0  0  0  0  0  0  0  0  0  0
   -5.7500    6.4400  -17.4710 C   0  0  0  0  0  0  0  0  0  0  0  0
   -5.0280    4.9440  -16.3210 H   0  0  0  0  0  0  0  0  0  0  0  0
   -7.5030    5.9290  -14.8880 N   0  0  0  0  0  0  0  0  0  0  0  0
   -8.5490    5.5670  -14.1750 C   0  0  0  0  0  0  0  0  0  0  0  0
   -9.5560    5.0600  -14.9260 N   0  0  0  0  0  0  0  0  0  0  0  0
   -7.8460    5.6490  -16.2080 C   0  0  0  0  0  0  0  0  0  0  0  0
   -7.1220    5.8270  -17.3990 C   0  0  0  0  0  0  0  0  0  0  0  0
   -7.7380    5.4120  -18.5810 C   0  0  0  0  0  3  0  0  0  0  0  0
   -9.0120    4.8530  -18.5960 C   0  0  0  0  0  3  0  0  0  0  0  0
   -9.7350    4.6960  -17.4240 C   0  0  0  0  0  3  0  0  0  0  0  0
   -9.1290    5.1000  -16.2420 C   0  0  0  0  0  0  0  0  0  0  0  0
  -10.4460    4.7180  -14.5900 H   0  0  0  0  0  0  0  0  0  0  0  0
   -8.8260    4.4440  -11.9630 C   0  0  0  0  0  1  0  0  0  0  0  0
   -8.5860    5.7570  -12.6840 C   0  0  0  0  0  3  0  0  0  0  0  0
   -7.3620    6.4760  -12.1630 C   0  0  0  0  0  1  0  0  0  0  0  0
   -3.4010    6.1870  -16.6690 C   0  0  0  0  0  0  0  0  0  0  0  0
   -2.8730    6.4910  -15.4190 C   0  0  0  0  0  3  0  0  0  0  0  0
   -1.5390    6.8460  -15.3060 C   0  0  0  0  0  3  0  0  0  0  0  0
   -0.7280    6.8900  -16.4260 C   0  0  0  0  0  3  0  0  0  0  0  0
   -1.2310    6.5680  -17.6760 C   0  0  0  0  0  0  0  0  0  0  0  0
   -2.5790    6.2330  -17.7900 C   0  0  0  0  0  3  0  0  0  0  0  0
   -0.3210    6.4940  -18.8610 C   0  0  0  0  0  2  0  0  0  0  0  0
   -1.0970    6.7750  -20.0620 N   0  0  0  0  0  0  0  0  0  0  0  0
   -0.5610    7.3690  -20.6790 H   0  0  0  0  0  0  0  0  0  0  0  0
   -1.3150    5.9080  -20.5330 H   0  0  0  0  0  0  0  0  0  0  0  0
  1  3  2  0  0  0  0
  2 18  1  0  0  0  0
  2  4  1  0  0  0  0
  3  9  1  0  0  0  0
  3  2  1  0  0  0  0
  5  6  2  0  0  0  0
  6 16  1  0  0  0  0
  7 14  1  0  0  0  0
  7  6  1  0  0  0  0
  8  5  1  0  0  0  0
  9  8  2  0  0  0  0
 10  9  1  0  0  0  0
 11 10  2  0  0  0  0
 11 12  1  0  0  0  0
 12 13  2  0  0  0  0
 13  8  1  0  0  0  0
 13  7  1  0  0  0  0
 16 17  1  0  0  0  0
 16 15  1  0  0  0  0
 18 19  1  0  0  0  0
 19 20  2  0  0  0  0
 21 20  1  0  0  0  0
 22 21  2  0  0  0  0
 23 22  1  0  0  0  0
 23 18  2  0  0  0  0
 24 22  1  0  0  0  0
 25 24  1  0  0  0  0
 26 25  1  0  0  0  0
 27 25  1  0  0  0  0
M  END
>  <minimizedAffinity>
-6.6893096

$$$$
