mol_0


 26 29  0  0  0  0  0  0  0  0999 V2000
   -5.3292    6.0987  -18.7572 C   0  0  0  0  0  0  0  0  0  0  0  0
   -5.8283    6.1460  -17.3435 N   0  0  0  0  0  0  0  0  0  0  0  0
   -7.2417    5.6439  -17.3337 C   0  0  0  0  0  0  0  0  0  0  0  0
   -8.2361    5.4662  -16.2249 C   0  0  0  0  0  0  0  0  0  0  0  0
   -9.6051    4.9307  -16.5238 C   0  0  0  0  0  0  0  0  0  0  0  0
   -9.9796    4.5730  -17.9316 C   0  0  0  0  0  0  0  0  0  0  0  0
   -8.9851    4.7507  -19.0404 C   0  0  0  0  0  0  0  0  0  0  0  0
   -7.6162    5.2862  -18.7415 C   0  0  0  0  0  0  0  0  0  0  0  0
   -6.4342    5.5673  -19.6212 N   0  0  0  0  0  0  0  0  0  0  0  0
   -6.3688    5.3543  -21.1046 H   0  0  0  0  0  0  0  0  0  0  0  0
   -7.8616    5.8239  -14.8171 N   0  0  0  0  0  0  0  0  0  0  0  0
   -6.8127    6.8864  -14.6727 C   0  0  0  0  0  0  0  0  0  0  0  0
   -6.2286    7.4592  -13.4154 C   0  0  0  0  0  0  0  0  0  0  0  0
   -6.5493    7.1110  -11.9920 O   0  0  0  0  0  0  0  0  0  0  0  0
   -7.5331    6.1040  -11.4744 C   0  0  0  0  0  0  0  0  0  0  0  0
   -8.4393    5.1964  -12.2524 C   0  0  0  0  0  0  0  0  0  0  0  0
   -8.5855    5.0718  -13.7400 C   0  0  0  0  0  0  0  0  0  0  0  0
   -8.7599    4.8483  -10.8290 N   0  0  0  0  0  0  0  0  0  0  0  0
   -8.4871    5.8378   -9.7351 C   0  0  0  0  0  0  0  0  0  0  0  0
   -8.8076    5.4897   -8.3118 C   0  0  0  0  0  0  0  0  0  0  0  0
   -9.4011    4.1520   -7.9822 O   0  0  0  0  0  0  0  0  0  0  0  0
   -9.6739    3.1626   -9.0760 C   0  0  0  0  0  0  0  0  0  0  0  0
   -9.3533    3.5107  -10.4994 C   0  0  0  0  0  0  0  0  0  0  0  0
   -2.6003    6.9222  -19.6924 C   0  0  0  0  0  0  0  0  0  0  0  0
   -3.9647    6.5105  -19.2248 C   0  0  0  0  0  0  0  0  0  0  0  0
   -3.5984    5.0697  -19.4246 C   0  0  0  0  0  0  0  0  0  0  0  0
 24 25  1  0  0  0
 25 26  1  0  0  0
 25  1  1  0  0  0
  1  2  2  0  0  0
  2  3  1  0  0  0
  3  4  2  0  0  0
  4 11  1  0  0  0
 11 12  1  0  0  0
 12 13  1  0  0  0
 13 14  1  0  0  0
 14 15  1  0  0  0
 15 16  1  0  0  0
 16 18  1  0  0  0
 18 19  1  0  0  0
 19 20  1  0  0  0
 20 21  1  0  0  0
 21 22  1  0  0  0
 22 23  1  0  0  0
 16 17  1  0  0  0
  4  5  1  0  0  0
  5  6  2  0  0  0
  6  7  1  0  0  0
  7  8  2  0  0  0
  8  9  1  0  0  0
  9  1  1  0  0  0
  8  3  1  0  0  0
 17 11  1  0  0  0
 23 18  1  0  0  0
  9 10  1  0  0  0
M  END
> <minimizedAffinity>
-7.65064

$$$$
mol_0


 26 29  0  0  0  0  0  0  0  0999 V2000
   -7.6657    5.6194  -17.1199 C   0  0  0  0  0  0  0  0  0  0  0  0
   -7.2434    5.1448  -15.7610 N   0  0  0  0  0  0  0  0  0  0  0  0
   -6.0377    5.9358  -15.3478 C   0  0  0  0  0  0  0  0  0  0  0  0
   -5.1921    5.9032  -14.1093 C   0  0  0  0  0  0  0  0  0  0  0  0
   -4.0236    6.8340  -13.9742 C   0  0  0  0  0  0  0  0  0  0  0  0
   -3.7007    7.7974  -15.0777 C   0  0  0  0  0  0  0  0  0  0  0  0
   -4.5464    7.8300  -16.3162 C   0  0  0  0  0  0  0  0  0  0  0  0
   -5.7148    6.8992  -16.4512 C   0  0  0  0  0  0  0  0  0  0  0  0
   -6.7210    6.7036  -17.5464 N   0  0  0  0  0  0  0  0  0  0  0  0
   -6.7732    7.4596  -18.8409 H   0  0  0  0  0  0  0  0  0  0  0  0
   -5.5150    4.9398  -13.0058 N   0  0  0  0  0  0  0  0  0  0  0  0
   -4.7140    3.6716  -12.9940 C   0  0  0  0  0  0  0  0  0  0  0  0
   -4.7963    2.5224  -12.0335 C   0  0  0  0  0  0  0  0  0  0  0  0
   -5.7001    2.3575  -10.8476 O   0  0  0  0  0  0  0  0  0  0  0  0
   -6.7446    3.3011  -10.3294 C   0  0  0  0  0  0  0  0  0  0  0  0
   -7.1433    4.6427  -10.8691 C   0  0  0  0  0  0  0  0  0  0  0  0
   -6.5961    5.3720  -12.0602 C   0  0  0  0  0  0  0  0  0  0  0  0
   -8.0470    4.4778   -9.6832 N   0  0  0  0  0  0  0  0  0  0  0  0
   -7.9573    5.4364   -8.5329 C   0  0  0  0  0  0  0  0  0  0  0  0
   -8.8609    5.2715   -7.3471 C   0  0  0  0  0  0  0  0  0  0  0  0
   -9.8542    4.1481   -7.3114 O   0  0  0  0  0  0  0  0  0  0  0  0
   -9.9439    3.1896   -8.4617 C   0  0  0  0  0  0  0  0  0  0  0  0
   -9.0403    3.3544   -9.6476 C   0  0  0  0  0  0  0  0  0  0  0  0
   -9.9913    4.5822  -18.7059 C   0  0  0  0  0  0  0  0  0  0  0  0
   -8.8285    5.1008  -17.9129 C   0  0  0  0  0  0  0  0  0  0  0  0
   -9.5312    4.7305  -16.6404 C   0  0  0  0  0  0  0  0  0  0  0  0
 24 25  1  0  0  0
 25 26  1  0  0  0
 25  1  1  0  0  0
  1  2  2  0  0  0
  2  3  1  0  0  0
  3  4  2  0  0  0
  4 11  1  0  0  0
 11 12  1  0  0  0
 12 13  1  0  0  0
 13 14  1  0  0  0
 14 15  1  0  0  0
 15 16  1  0  0  0
 16 18  1  0  0  0
 18 19  1  0  0  0
 19 20  1  0  0  0
 20 21  1  0  0  0
 21 22  1  0  0  0
 22 23  1  0  0  0
 16 17  1  0  0  0
  4  5  1  0  0  0
  5  6  2  0  0  0
  6  7  1  0  0  0
  7  8  2  0  0  0
  8  9  1  0  0  0
  9  1  1  0  0  0
  8  3  1  0  0  0
 17 11  1  0  0  0
 23 18  1  0  0  0
  9 10  1  0  0  0
M  END
> <minimizedAffinity>
-7.13900

$$$$
mol_0


 26 29  0  0  0  0  0  0  0  0999 V2000
   -5.1466    3.6748  -12.1228 C   0  0  0  0  0  0  0  0  0  0  0  0
   -5.8594    4.0942  -13.3742 N   0  0  0  0  0  0  0  0  0  0  0  0
   -6.8063    5.2020  -13.0193 C   0  0  0  0  0  0  0  0  0  0  0  0
   -7.7682    6.0034  -13.8453 C   0  0  0  0  0  0  0  0  0  0  0  0
   -8.6026    7.0703  -13.2005 C   0  0  0  0  0  0  0  0  0  0  0  0
   -8.4751    7.3356  -11.7297 C   0  0  0  0  0  0  0  0  0  0  0  0
   -7.5131    6.5341  -10.9037 C   0  0  0  0  0  0  0  0  0  0  0  0
   -6.6788    5.4673  -11.5485 C   0  0  0  0  0  0  0  0  0  0  0  0
   -5.6530    4.5235  -10.9945 N   0  0  0  0  0  0  0  0  0  0  0  0
   -5.2112    4.4425   -9.5633 H   0  0  0  0  0  0  0  0  0  0  0  0
   -7.8958    5.7381  -15.3162 N   0  0  0  0  0  0  0  0  0  0  0  0
   -9.1712    5.0786  -15.7503 C   0  0  0  0  0  0  0  0  0  0  0  0
   -9.5969    4.6855  -17.1339 C   0  0  0  0  0  0  0  0  0  0  0  0
   -8.8523    4.8548  -18.4250 O   0  0  0  0  0  0  0  0  0  0  0  0
   -7.4981    5.4590  -18.6515 C   0  0  0  0  0  0  0  0  0  0  0  0
   -6.5541    6.0431  -17.6426 C   0  0  0  0  0  0  0  0  0  0  0  0
   -6.7311    6.1673  -16.1583 C   0  0  0  0  0  0  0  0  0  0  0  0
   -5.8096    6.2124  -18.9338 N   0  0  0  0  0  0  0  0  0  0  0  0
   -6.3355    7.1428  -19.9864 C   0  0  0  0  0  0  0  0  0  0  0  0
   -5.5911    7.3121  -21.2775 C   0  0  0  0  0  0  0  0  0  0  0  0
   -4.3207    6.5510  -21.5161 O   0  0  0  0  0  0  0  0  0  0  0  0
   -3.7949    5.6206  -20.4636 C   0  0  0  0  0  0  0  0  0  0  0  0
   -4.5393    5.4513  -19.1724 C   0  0  0  0  0  0  0  0  0  0  0  0
   -3.0724    1.5175  -11.9135 C   0  0  0  0  0  0  0  0  0  0  0  0
   -4.1095    2.5961  -12.0182 C   0  0  0  0  0  0  0  0  0  0  0  0
   -3.6542    2.8983  -13.4151 C   0  0  0  0  0  0  0  0  0  0  0  0
 24 25  1  0  0  0
 25 26  1  0  0  0
 25  1  1  0  0  0
  1  2  2  0  0  0
  2  3  1  0  0  0
  3  4  2  0  0  0
  4 11  1  0  0  0
 11 12  1  0  0  0
 12 13  1  0  0  0
 13 14  1  0  0  0
 14 15  1  0  0  0
 15 16  1  0  0  0
 16 18  1  0  0  0
 18 19  1  0  0  0
 19 20  1  0  0  0
 20 21  1  0  0  0
 21 22  1  0  0  0
 22 23  1  0  0  0
 16 17  1  0  0  0
  4  5  1  0  0  0
  5  6  2  0  0  0
  6  7  1  0  0  0
  7  8  2  0  0  0
  8  9  1  0  0  0
  9  1  1  0  0  0
  8  3  1  0  0  0
 17 11  1  0  0  0
 23 18  1  0  0  0
  9 10  1  0  0  0
M  END
> <minimizedAffinity>
-7.13299

$$$$
mol_1


 24 26  0  0  0  0  0  0  0  0999 V2000
   -7.8703    5.0613  -11.7137 C   0  0  0  0  0  0  0  0  0  0  0  0
   -8.6285    5.9167  -12.6850 C   0  0  0  0  0  0  0  0  0  0  0  0
   -8.0650    6.1822  -14.0494 C   0  0  0  0  0  0  0  0  0  0  0  0
   -6.7430    5.5923  -14.4427 C   0  0  0  0  0  0  0  0  0  0  0  0
   -5.9848    4.7369  -13.4715 C   0  0  0  0  0  0  0  0  0  0  0  0
   -4.6684    4.0253  -13.5758 N   0  0  0  0  0  0  0  0  0  0  0  0
   -4.4185    3.3201  -12.2758 C   0  0  0  0  0  0  0  0  0  0  0  0
   -5.5803    3.5958  -11.3680 N   0  0  0  0  0  0  0  0  0  0  0  0
   -6.5484    4.4714  -12.1070 C   0  0  0  0  0  0  0  0  0  0  0  0
   -3.7613    4.0200  -14.7704 H   0  0  0  0  0  0  0  0  0  0  0  0
  -10.4633    4.2538   -4.8326 C   0  0  0  0  0  0  0  0  0  0  0  0
   -9.7260    5.2300   -5.7006 C   0  0  0  0  0  0  0  0  0  0  0  0
   -9.2873    6.5501   -5.1394 O   0  0  0  0  0  0  0  0  0  0  0  0
   -9.4274    4.8861   -7.1298 N   0  0  0  0  0  0  0  0  0  0  0  0
   -8.6862    5.9315   -7.9095 C   0  0  0  0  0  0  0  0  0  0  0  0
   -8.2440    5.8914   -9.3422 C   0  0  0  0  0  0  0  0  0  0  0  0
   -8.4339    4.7958  -10.3492 N   0  0  0  0  0  0  0  0  0  0  0  0
   -9.1128    3.4700  -10.1721 C   0  0  0  0  0  0  0  0  0  0  0  0
   -9.7695    2.9123   -8.9443 C   0  0  0  0  0  0  0  0  0  0  0  0
   -9.9096    3.5426   -7.5903 N   0  0  0  0  0  0  0  0  0  0  0  0
  -10.6265    2.7204   -6.5608 C   0  0  0  0  0  0  0  0  0  0  0  0
   -3.2175    2.4856  -11.9421 C   0  0  0  0  0  0  0  0  0  0  0  0
   -2.0165    1.6512  -11.6084 C   0  0  0  0  0  0  0  0  0  0  0  0
   -3.1494    2.0147  -13.3646 C   0  0  0  0  0  0  0  0  0  0  0  0
 11 12  1  0  0  0
 12 13  2  0  0  0
 12 14  1  0  0  0
 14 15  1  0  0  0
 15 16  1  0  0  0
 16 17  1  0  0  0
 17  1  1  0  0  0
  1  2  2  0  0  0
  2  3  1  0  0  0
  3  4  2  0  0  0
  4  5  1  0  0  0
  5  6  1  0  0  0
  6  7  1  0  0  0
  7 22  1  0  0  0
 22 23  1  0  0  0
 22 24  1  0  0  0
  7  8  2  0  0  0
  8  9  1  0  0  0
 17 18  1  0  0  0
 18 19  1  0  0  0
 19 20  1  0  0  0
 20 21  1  0  0  0
 20 14  1  0  0  0
  9  1  1  0  0  0
  9  5  2  0  0  0
  6 10  1  0  0  0
M  END
> <minimizedAffinity>
-6.84315

$$$$
mol_1


 24 26  0  0  0  0  0  0  0  0999 V2000
   -6.1307    5.5656  -13.0729 C   0  0  0  0  0  0  0  0  0  0  0  0
   -4.7073    6.0020  -12.8897 C   0  0  0  0  0  0  0  0  0  0  0  0
   -3.8856    6.3993  -14.0799 C   0  0  0  0  0  0  0  0  0  0  0  0
   -4.4871    6.3602  -15.4535 C   0  0  0  0  0  0  0  0  0  0  0  0
   -5.9104    5.9237  -15.6368 C   0  0  0  0  0  0  0  0  0  0  0  0
   -6.7682    5.7853  -16.8594 N   0  0  0  0  0  0  0  0  0  0  0  0
   -8.1202    5.3025  -16.4248 C   0  0  0  0  0  0  0  0  0  0  0  0
   -8.0980    5.1424  -14.9335 N   0  0  0  0  0  0  0  0  0  0  0  0
   -6.7322    5.5264  -14.4465 C   0  0  0  0  0  0  0  0  0  0  0  0
   -6.3479    6.0783  -18.2692 H   0  0  0  0  0  0  0  0  0  0  0  0
   -9.9807    4.0526   -6.9399 C   0  0  0  0  0  0  0  0  0  0  0  0
   -9.0107    5.0509   -7.4988 C   0  0  0  0  0  0  0  0  0  0  0  0
   -8.5569    6.2076   -6.6583 O   0  0  0  0  0  0  0  0  0  0  0  0
   -8.4944    4.8927   -8.8982 N   0  0  0  0  0  0  0  0  0  0  0  0
   -7.5298    5.9451   -9.3589 C   0  0  0  0  0  0  0  0  0  0  0  0
   -6.8436    6.0677  -10.6871 C   0  0  0  0  0  0  0  0  0  0  0  0
   -6.9525    5.1682  -11.8826 N   0  0  0  0  0  0  0  0  0  0  0  0
   -7.7744    3.9241  -12.0452 C   0  0  0  0  0  0  0  0  0  0  0  0
   -8.6905    3.2721  -11.0525 C   0  0  0  0  0  0  0  0  0  0  0  0
   -9.0110    3.7032   -9.6519 N   0  0  0  0  0  0  0  0  0  0  0  0
   -9.9755    2.8291   -8.9065 C   0  0  0  0  0  0  0  0  0  0  0  0
   -9.2893    5.0278  -17.3236 C   0  0  0  0  0  0  0  0  0  0  0  0
  -10.4584    4.7532  -18.2224 C   0  0  0  0  0  0  0  0  0  0  0  0
   -8.3828    5.0766  -18.5176 C   0  0  0  0  0  0  0  0  0  0  0  0
 11 12  1  0  0  0
 12 13  2  0  0  0
 12 14  1  0  0  0
 14 15  1  0  0  0
 15 16  1  0  0  0
 16 17  1  0  0  0
 17  1  1  0  0  0
  1  2  2  0  0  0
  2  3  1  0  0  0
  3  4  2  0  0  0
  4  5  1  0  0  0
  5  6  1  0  0  0
  6  7  1  0  0  0
  7 22  1  0  0  0
 22 23  1  0  0  0
 22 24  1  0  0  0
  7  8  2  0  0  0
  8  9  1  0  0  0
 17 18  1  0  0  0
 18 19  1  0  0  0
 19 20  1  0  0  0
 20 21  1  0  0  0
 20 14  1  0  0  0
  9  1  1  0  0  0
  9  5  2  0  0  0
  6 10  1  0  0  0
M  END
> <minimizedAffinity>
-6.78717

$$$$
mol_1


 24 26  0  0  0  0  0  0  0  0999 V2000
   -6.0345    5.6593  -13.2504 C   0  0  0  0  0  0  0  0  0  0  0  0
   -4.5799    6.0199  -13.1856 C   0  0  0  0  0  0  0  0  0  0  0  0
   -3.8109    6.2648  -14.4499 C   0  0  0  0  0  0  0  0  0  0  0  0
   -4.4965    6.1491  -15.7791 C   0  0  0  0  0  0  0  0  0  0  0  0
   -5.9510    5.7885  -15.8439 C   0  0  0  0  0  0  0  0  0  0  0  0
   -6.8885    5.6027  -17.0000 N   0  0  0  0  0  0  0  0  0  0  0  0
   -8.2369    5.2429  -16.4501 C   0  0  0  0  0  0  0  0  0  0  0  0
   -8.1328    5.2064  -14.9542 N   0  0  0  0  0  0  0  0  0  0  0  0
   -6.7200    5.5436  -14.5795 C   0  0  0  0  0  0  0  0  0  0  0  0
   -6.5389    5.7507  -18.4512 H   0  0  0  0  0  0  0  0  0  0  0  0
  -10.0139    3.9804   -7.2444 C   0  0  0  0  0  0  0  0  0  0  0  0
   -9.6788    3.4618   -8.6114 C   0  0  0  0  0  0  0  0  0  0  0  0
  -10.2679    2.1670   -9.0876 O   0  0  0  0  0  0  0  0  0  0  0  0
   -8.7546    4.2378   -9.5023 N   0  0  0  0  0  0  0  0  0  0  0  0
   -8.4858    3.6312  -10.8476 C   0  0  0  0  0  0  0  0  0  0  0  0
   -7.6174    4.1548  -11.9530 C   0  0  0  0  0  0  0  0  0  0  0  0
   -6.8035    5.4144  -11.9860 N   0  0  0  0  0  0  0  0  0  0  0  0
   -6.6568    6.4614  -10.9218 C   0  0  0  0  0  0  0  0  0  0  0  0
   -7.2879    6.5073   -9.5619 C   0  0  0  0  0  0  0  0  0  0  0  0
   -8.2215    5.5177   -8.9301 N   0  0  0  0  0  0  0  0  0  0  0  0
   -8.6830    5.8525   -7.5427 C   0  0  0  0  0  0  0  0  0  0  0  0
   -9.4725    4.9679  -17.2549 C   0  0  0  0  0  0  0  0  0  0  0  0
  -10.7081    4.6930  -18.0596 C   0  0  0  0  0  0  0  0  0  0  0  0
   -8.6658    5.0382  -18.5175 C   0  0  0  0  0  0  0  0  0  0  0  0
 11 12  1  0  0  0
 12 13  2  0  0  0
 12 14  1  0  0  0
 14 15  1  0  0  0
 15 16  1  0  0  0
 16 17  1  0  0  0
 17  1  1  0  0  0
  1  2  2  0  0  0
  2  3  1  0  0  0
  3  4  2  0  0  0
  4  5  1  0  0  0
  5  6  1  0  0  0
  6  7  1  0  0  0
  7 22  1  0  0  0
 22 23  1  0  0  0
 22 24  1  0  0  0
  7  8  2  0  0  0
  8  9  1  0  0  0
 17 18  1  0  0  0
 18 19  1  0  0  0
 19 20  1  0  0  0
 20 21  1  0  0  0
 20 14  1  0  0  0
  9  1  1  0  0  0
  9  5  2  0  0  0
  6 10  1  0  0  0
M  END
> <minimizedAffinity>
-6.67471

$$$$
mol_2


 26 29  0  0  0  0  0  0  0  0999 V2000
   -8.1648    5.3048  -16.5011 C   0  0  0  0  0  0  0  0  0  0  0  0
   -8.1805    5.0757  -15.0188 N   0  0  0  0  0  0  0  0  0  0  0  0
   -6.8336    5.4530  -14.4770 C   0  0  0  0  0  0  0  0  0  0  0  0
   -6.2700    5.4354  -13.0871 C   0  0  0  0  0  0  0  0  0  0  0  0
   -4.8580    5.8800  -12.8446 C   0  0  0  0  0  0  0  0  0  0  0  0
   -4.0098    6.3423  -13.9921 C   0  0  0  0  0  0  0  0  0  0  0  0
   -4.5735    6.3600  -15.3821 C   0  0  0  0  0  0  0  0  0  0  0  0
   -5.9854    5.9153  -15.6245 C   0  0  0  0  0  0  0  0  0  0  0  0
   -6.8081    5.8237  -16.8754 N   0  0  0  0  0  0  0  0  0  0  0  0
   -6.3538    6.1872  -18.2580 H   0  0  0  0  0  0  0  0  0  0  0  0
   -7.1182    4.9731  -11.9396 N   0  0  0  0  0  0  0  0  0  0  0  0
   -8.0289    3.7932  -12.1078 C   0  0  0  0  0  0  0  0  0  0  0  0
   -8.8772    3.3309  -10.9602 C   0  0  0  0  0  0  0  0  0  0  0  0
   -8.8147    4.0485   -9.6446 N   0  0  0  0  0  0  0  0  0  0  0  0
   -9.6629    3.5862   -8.4971 C   0  0  0  0  0  0  0  0  0  0  0  0
  -10.3503    2.6230   -8.7727 O   0  0  0  0  0  0  0  0  0  0  0  0
   -7.9040    5.2285   -9.4763 C   0  0  0  0  0  0  0  0  0  0  0  0
   -7.0557    5.6908  -10.6239 C   0  0  0  0  0  0  0  0  0  0  0  0
   -9.6004    4.3039   -7.1813 C   0  0  0  0  0  0  0  0  0  0  0  0
   -9.3442    5.2154   -6.0180 C   0  0  0  0  0  0  0  0  0  0  0  0
  -10.1257    4.7013   -4.8454 C   0  0  0  0  0  0  0  0  0  0  0  0
  -10.8648    3.4720   -5.2840 O   0  0  0  0  0  0  0  0  0  0  0  0
  -10.5402    3.2264   -6.7278 C   0  0  0  0  0  0  0  0  0  0  0  0
  -10.4460    4.8118  -18.3860 C   0  0  0  0  0  0  0  0  0  0  0  0
   -9.3054    5.0583  -17.4435 C   0  0  0  0  0  0  0  0  0  0  0  0
   -8.3523    5.0762  -18.6017 C   0  0  0  0  0  0  0  0  0  0  0  0
 24 25  1  0  0  0
 25 26  1  0  0  0
 25  1  1  0  0  0
  1  2  2  0  0  0
  2  3  1  0  0  0
  3  4  2  0  0  0
  4 11  1  0  0  0
 11 12  1  0  0  0
 12 13  1  0  0  0
 13 14  1  0  0  0
 14 15  1  0  0  0
 15 16  2  0  0  0
 15 19  1  0  0  0
 19 20  1  0  0  0
 20 21  1  0  0  0
 21 22  1  0  0  0
 22 23  1  0  0  0
 14 17  1  0  0  0
 17 18  1  0  0  0
  4  5  1  0  0  0
  5  6  2  0  0  0
  6  7  1  0  0  0
  7  8  2  0  0  0
  8  9  1  0  0  0
  9  1  1  0  0  0
  8  3  1  0  0  0
 18 11  1  0  0  0
 23 19  1  0  0  0
  9 10  1  0  0  0
M  END
> <minimizedAffinity>
-7.89535

$$$$
mol_2


 26 29  0  0  0  0  0  0  0  0999 V2000
   -7.9455    5.4696  -17.4689 C   0  0  0  0  0  0  0  0  0  0  0  0
   -7.7782    5.5466  -15.9802 N   0  0  0  0  0  0  0  0  0  0  0  0
   -6.3321    5.8193  -15.6897 C   0  0  0  0  0  0  0  0  0  0  0  0
   -5.5830    5.9961  -14.4022 C   0  0  0  0  0  0  0  0  0  0  0  0
   -4.1073    6.2644  -14.4238 C   0  0  0  0  0  0  0  0  0  0  0  0
   -3.3808    6.3558  -15.7329 C   0  0  0  0  0  0  0  0  0  0  0  0
   -4.1299    6.1790  -17.0204 C   0  0  0  0  0  0  0  0  0  0  0  0
   -5.6056    5.9107  -16.9988 C   0  0  0  0  0  0  0  0  0  0  0  0
   -6.6027    5.6946  -18.0983 N   0  0  0  0  0  0  0  0  0  0  0  0
   -6.3086    5.7021  -19.5692 H   0  0  0  0  0  0  0  0  0  0  0  0
   -6.3096    5.9047  -13.0931 N   0  0  0  0  0  0  0  0  0  0  0  0
   -6.3781    7.0991  -12.1883 C   0  0  0  0  0  0  0  0  0  0  0  0
   -7.1046    7.0077  -10.8792 C   0  0  0  0  0  0  0  0  0  0  0  0
   -7.7627    5.7218  -10.4749 N   0  0  0  0  0  0  0  0  0  0  0  0
   -8.4892    5.6304   -9.1658 C   0  0  0  0  0  0  0  0  0  0  0  0
   -8.4653    6.6692   -8.5361 O   0  0  0  0  0  0  0  0  0  0  0  0
   -7.6942    4.5273  -11.3797 C   0  0  0  0  0  0  0  0  0  0  0  0
   -6.9676    4.6188  -12.6888 C   0  0  0  0  0  0  0  0  0  0  0  0
   -9.1473    4.3445   -8.7614 C   0  0  0  0  0  0  0  0  0  0  0  0
   -9.7820    2.9891   -8.6620 C   0  0  0  0  0  0  0  0  0  0  0  0
  -10.1481    2.7529   -7.2267 C   0  0  0  0  0  0  0  0  0  0  0  0
   -9.7395    3.9622   -6.4390 O   0  0  0  0  0  0  0  0  0  0  0  0
   -9.1210    4.9459   -7.3876 C   0  0  0  0  0  0  0  0  0  0  0  0
  -10.5144    4.9556  -18.9305 C   0  0  0  0  0  0  0  0  0  0  0  0
   -9.2299    5.2126  -18.1997 C   0  0  0  0  0  0  0  0  0  0  0  0
   -9.7335    4.4141  -17.0339 C   0  0  0  0  0  0  0  0  0  0  0  0
 24 25  1  0  0  0
 25 26  1  0  0  0
 25  1  1  0  0  0
  1  2  2  0  0  0
  2  3  1  0  0  0
  3  4  2  0  0  0
  4 11  1  0  0  0
 11 12  1  0  0  0
 12 13  1  0  0  0
 13 14  1  0  0  0
 14 15  1  0  0  0
 15 16  2  0  0  0
 15 19  1  0  0  0
 19 20  1  0  0  0
 20 21  1  0  0  0
 21 22  1  0  0  0
 22 23  1  0  0  0
 14 17  1  0  0  0
 17 18  1  0  0  0
  4  5  1  0  0  0
  5  6  2  0  0  0
  6  7  1  0  0  0
  7  8  2  0  0  0
  8  9  1  0  0  0
  9  1  1  0  0  0
  8  3  1  0  0  0
 18 11  1  0  0  0
 23 19  1  0  0  0
  9 10  1  0  0  0
M  END
> <minimizedAffinity>
-7.06657

$$$$
mol_2


 26 29  0  0  0  0  0  0  0  0999 V2000
   -4.0795    4.5620  -13.3657 C   0  0  0  0  0  0  0  0  0  0  0  0
   -5.2767    4.5214  -12.4628 N   0  0  0  0  0  0  0  0  0  0  0  0
   -6.4697    4.9686  -13.2544 C   0  0  0  0  0  0  0  0  0  0  0  0
   -7.9153    5.1281  -12.8874 C   0  0  0  0  0  0  0  0  0  0  0  0
   -8.9013    5.6047  -13.9126 C   0  0  0  0  0  0  0  0  0  0  0  0
   -8.4415    5.9216  -15.3048 C   0  0  0  0  0  0  0  0  0  0  0  0
   -6.9958    5.7621  -15.6718 C   0  0  0  0  0  0  0  0  0  0  0  0
   -6.0100    5.2856  -14.6466 C   0  0  0  0  0  0  0  0  0  0  0  0
   -4.5328    5.0342  -14.7153 N   0  0  0  0  0  0  0  0  0  0  0  0
   -3.6617    5.2222  -15.9219 H   0  0  0  0  0  0  0  0  0  0  0  0
   -8.3751    4.8112  -11.4952 N   0  0  0  0  0  0  0  0  0  0  0  0
   -9.1666    3.5644  -11.2324 C   0  0  0  0  0  0  0  0  0  0  0  0
   -9.6264    3.2475   -9.8402 C   0  0  0  0  0  0  0  0  0  0  0  0
   -9.2947    4.1773   -8.7109 N   0  0  0  0  0  0  0  0  0  0  0  0
   -9.7545    3.8603   -7.3187 C   0  0  0  0  0  0  0  0  0  0  0  0
  -10.3835    2.8230   -7.2512 O   0  0  0  0  0  0  0  0  0  0  0  0
   -8.5032    5.4241   -8.9737 C   0  0  0  0  0  0  0  0  0  0  0  0
   -8.0434    5.7411  -10.3659 C   0  0  0  0  0  0  0  0  0  0  0  0
   -9.4227    4.7902   -6.1894 C   0  0  0  0  0  0  0  0  0  0  0  0
   -8.8941    5.8486   -5.2674 C   0  0  0  0  0  0  0  0  0  0  0  0
   -9.5788    5.6928   -3.9419 C   0  0  0  0  0  0  0  0  0  0  0  0
  -10.5306    4.5381   -4.0446 O   0  0  0  0  0  0  0  0  0  0  0  0
  -10.4341    3.9802   -5.4337 C   0  0  0  0  0  0  0  0  0  0  0  0
   -1.2719    3.8275  -12.6056 C   0  0  0  0  0  0  0  0  0  0  0  0
   -2.6757    4.1947  -12.9857 C   0  0  0  0  0  0  0  0  0  0  0  0
   -3.0474    2.7418  -13.0165 C   0  0  0  0  0  0  0  0  0  0  0  0
 24 25  1  0  0  0
 25 26  1  0  0  0
 25  1  1  0  0  0
  1  2  2  0  0  0
  2  3  1  0  0  0
  3  4  2  0  0  0
  4 11  1  0  0  0
 11 12  1  0  0  0
 12 13  1  0  0  0
 13 14  1  0  0  0
 14 15  1  0  0  0
 15 16  2  0  0  0
 15 19  1  0  0  0
 19 20  1  0  0  0
 20 21  1  0  0  0
 21 22  1  0  0  0
 22 23  1  0  0  0
 14 17  1  0  0  0
 17 18  1  0  0  0
  4  5  1  0  0  0
  5  6  2  0  0  0
  6  7  1  0  0  0
  7  8  2  0  0  0
  8  9  1  0  0  0
  9  1  1  0  0  0
  8  3  1  0  0  0
 18 11  1  0  0  0
 23 19  1  0  0  0
  9 10  1  0  0  0
M  END
> <minimizedAffinity>
-7.05187

$$$$
mol_3


 22 24  0  0  0  0  0  0  0  0999 V2000
   -7.9261    5.5179  -11.9089 C   0  0  0  0  0  0  0  0  0  0  0  0
   -8.5981    6.6624  -12.6077 C   0  0  0  0  0  0  0  0  0  0  0  0
   -8.0547    7.1687  -13.9109 C   0  0  0  0  0  0  0  0  0  0  0  0
   -6.8391    6.5304  -14.5152 C   0  0  0  0  0  0  0  0  0  0  0  0
   -6.1671    5.3859  -13.8164 C   0  0  0  0  0  0  0  0  0  0  0  0
   -4.9628    4.5635  -14.1672 N   0  0  0  0  0  0  0  0  0  0  0  0
   -4.7619    3.5489  -13.0808 C   0  0  0  0  0  0  0  0  0  0  0  0
   -5.8422    3.7443  -12.0585 N   0  0  0  0  0  0  0  0  0  0  0  0
   -6.7106    4.8796  -12.5132 C   0  0  0  0  0  0  0  0  0  0  0  0
   -4.1091    4.7269  -15.3897 H   0  0  0  0  0  0  0  0  0  0  0  0
   -9.9888    4.3342   -5.4595 C   0  0  0  0  0  0  0  0  0  0  0  0
  -10.1001    3.4927   -6.6962 C   0  0  0  0  0  0  0  0  0  0  0  0
  -10.7550    2.1448   -6.6297 O   0  0  0  0  0  0  0  0  0  0  0  0
   -9.5567    3.9990   -7.9993 N   0  0  0  0  0  0  0  0  0  0  0  0
   -8.9018    5.3468   -8.0658 C   0  0  0  0  0  0  0  0  0  0  0  0
   -8.3583    5.8532   -9.3690 C   0  0  0  0  0  0  0  0  0  0  0  0
   -8.4696    5.0116  -10.6057 N   0  0  0  0  0  0  0  0  0  0  0  0
   -9.1245    3.6637  -10.5391 C   0  0  0  0  0  0  0  0  0  0  0  0
   -9.6680    3.1574   -9.2361 C   0  0  0  0  0  0  0  0  0  0  0  0
   -3.6722    2.5196  -13.0262 C   0  0  0  0  0  0  0  0  0  0  0  0
   -2.5824    1.4903  -12.9716 C   0  0  0  0  0  0  0  0  0  0  0  0
   -4.0791    2.1630  -11.6272 C   0  0  0  0  0  0  0  0  0  0  0  0
 11 12  1  0  0  0
 12 13  2  0  0  0
 12 14  1  0  0  0
 14 15  1  0  0  0
 15 16  1  0  0  0
 16 17  1  0  0  0
 17  1  1  0  0  0
  1  2  2  0  0  0
  2  3  1  0  0  0
  3  4  2  0  0  0
  4  5  1  0  0  0
  5  6  1  0  0  0
  6  7  1  0  0  0
  7 20  1  0  0  0
 20 21  1  0  0  0
 20 22  1  0  0  0
  7  8  2  0  0  0
  8  9  1  0  0  0
 17 18  1  0  0  0
 18 19  1  0  0  0
 19 14  1  0  0  0
  9  1  1  0  0  0
  9  5  2  0  0  0
  6 10  1  0  0  0
M  END
> <minimizedAffinity>
-6.40768

$$$$
mol_3


 22 24  0  0  0  0  0  0  0  0999 V2000
   -4.1458    6.3195  -19.5242 C   0  0  0  0  0  0  0  0  0  0  0  0
   -2.9171    6.6071  -18.7133 C   0  0  0  0  0  0  0  0  0  0  0  0
   -2.9821    6.5725  -17.2152 C   0  0  0  0  0  0  0  0  0  0  0  0
   -4.2759    6.2504  -16.5278 C   0  0  0  0  0  0  0  0  0  0  0  0
   -5.5046    5.9629  -17.3387 C   0  0  0  0  0  0  0  0  0  0  0  0
   -6.9098    5.6175  -16.9435 N   0  0  0  0  0  0  0  0  0  0  0  0
   -7.7132    5.4385  -18.1975 C   0  0  0  0  0  0  0  0  0  0  0  0
   -6.8046    5.6734  -19.3677 N   0  0  0  0  0  0  0  0  0  0  0  0
   -5.4396    5.9974  -18.8369 C   0  0  0  0  0  0  0  0  0  0  0  0
   -7.4217    5.4758  -15.5407 H   0  0  0  0  0  0  0  0  0  0  0  0
   -4.1909    7.7292  -26.2519 C   0  0  0  0  0  0  0  0  0  0  0  0
   -3.8856    6.4576  -25.5169 C   0  0  0  0  0  0  0  0  0  0  0  0
   -3.5153    5.2207  -26.2803 O   0  0  0  0  0  0  0  0  0  0  0  0
   -3.9507    6.4231  -24.0188 N   0  0  0  0  0  0  0  0  0  0  0  0
   -4.3210    7.6601  -23.2555 C   0  0  0  0  0  0  0  0  0  0  0  0
   -4.3860    7.6256  -21.7572 C   0  0  0  0  0  0  0  0  0  0  0  0
   -4.0808    6.3541  -21.0224 N   0  0  0  0  0  0  0  0  0  0  0  0
   -3.7104    5.1170  -21.7858 C   0  0  0  0  0  0  0  0  0  0  0  0
   -3.6454    5.1516  -23.2839 C   0  0  0  0  0  0  0  0  0  0  0  0
   -9.1696    5.0866  -18.2688 C   0  0  0  0  0  0  0  0  0  0  0  0
  -10.6260    4.7346  -18.3402 C   0  0  0  0  0  0  0  0  0  0  0  0
   -9.2135    4.9655  -16.7744 C   0  0  0  0  0  0  0  0  0  0  0  0
 11 12  1  0  0  0
 12 13  2  0  0  0
 12 14  1  0  0  0
 14 15  1  0  0  0
 15 16  1  0  0  0
 16 17  1  0  0  0
 17  1  1  0  0  0
  1  2  2  0  0  0
  2  3  1  0  0  0
  3  4  2  0  0  0
  4  5  1  0  0  0
  5  6  1  0  0  0
  6  7  1  0  0  0
  7 20  1  0  0  0
 20 21  1  0  0  0
 20 22  1  0  0  0
  7  8  2  0  0  0
  8  9  1  0  0  0
 17 18  1  0  0  0
 18 19  1  0  0  0
 19 14  1  0  0  0
  9  1  1  0  0  0
  9  5  2  0  0  0
  6 10  1  0  0  0
M  END
> <minimizedAffinity>
-6.32703

$$$$
mol_3


 22 24  0  0  0  0  0  0  0  0999 V2000
   -8.3813    5.5723  -15.6660 C   0  0  0  0  0  0  0  0  0  0  0  0
   -9.6223    5.1130  -16.3723 C   0  0  0  0  0  0  0  0  0  0  0  0
   -9.5953    4.8648  -17.8513 C   0  0  0  0  0  0  0  0  0  0  0  0
   -8.3272    5.0760  -18.6242 C   0  0  0  0  0  0  0  0  0  0  0  0
   -7.0861    5.5353  -17.9180 C   0  0  0  0  0  0  0  0  0  0  0  0
   -5.7000    5.8268  -18.4117 N   0  0  0  0  0  0  0  0  0  0  0  0
   -4.8704    6.2552  -17.2377 C   0  0  0  0  0  0  0  0  0  0  0  0
   -5.7438    6.2284  -16.0184 N   0  0  0  0  0  0  0  0  0  0  0  0
   -7.1132    5.7835  -16.4389 C   0  0  0  0  0  0  0  0  0  0  0  0
   -5.2267    5.7104  -19.8302 H   0  0  0  0  0  0  0  0  0  0  0  0
   -8.4766    5.4085   -8.7947 C   0  0  0  0  0  0  0  0  0  0  0  0
   -8.4895    6.5652   -9.7498 C   0  0  0  0  0  0  0  0  0  0  0  0
   -8.5295    7.9700   -9.2256 O   0  0  0  0  0  0  0  0  0  0  0  0
   -8.4625    6.3170  -11.2288 N   0  0  0  0  0  0  0  0  0  0  0  0
   -8.4225    4.9121  -11.7529 C   0  0  0  0  0  0  0  0  0  0  0  0
   -8.3954    4.6638  -13.2320 C   0  0  0  0  0  0  0  0  0  0  0  0
   -8.4084    5.8205  -14.1869 N   0  0  0  0  0  0  0  0  0  0  0  0
   -8.4483    7.2255  -13.6628 C   0  0  0  0  0  0  0  0  0  0  0  0
   -8.4754    7.4737  -12.1838 C   0  0  0  0  0  0  0  0  0  0  0  0
   -3.4218    6.6423  -17.2761 C   0  0  0  0  0  0  0  0  0  0  0  0
   -1.9731    7.0294  -17.3146 C   0  0  0  0  0  0  0  0  0  0  0  0
   -3.2248    5.7847  -18.4909 C   0  0  0  0  0  0  0  0  0  0  0  0
 11 12  1  0  0  0
 12 13  2  0  0  0
 12 14  1  0  0  0
 14 15  1  0  0  0
 15 16  1  0  0  0
 16 17  1  0  0  0
 17  1  1  0  0  0
  1  2  2  0  0  0
  2  3  1  0  0  0
  3  4  2  0  0  0
  4  5  1  0  0  0
  5  6  1  0  0  0
  6  7  1  0  0  0
  7 20  1  0  0  0
 20 21  1  0  0  0
 20 22  1  0  0  0
  7  8  2  0  0  0
  8  9  1  0  0  0
 17 18  1  0  0  0
 18 19  1  0  0  0
 19 14  1  0  0  0
  9  1  1  0  0  0
  9  5  2  0  0  0
  6 10  1  0  0  0
M  END
> <minimizedAffinity>
-6.06506

$$$$
mol_4


 22 24  0  0  0  0  0  0  0  0999 V2000
   -7.9261    5.5179  -11.9089 C   0  0  0  0  0  0  0  0  0  0  0  0
   -8.5981    6.6624  -12.6077 C   0  0  0  0  0  0  0  0  0  0  0  0
   -8.0547    7.1687  -13.9109 C   0  0  0  0  0  0  0  0  0  0  0  0
   -6.8391    6.5304  -14.5152 C   0  0  0  0  0  0  0  0  0  0  0  0
   -6.1671    5.3859  -13.8164 C   0  0  0  0  0  0  0  0  0  0  0  0
   -4.9628    4.5635  -14.1672 N   0  0  0  0  0  0  0  0  0  0  0  0
   -4.7619    3.5489  -13.0808 C   0  0  0  0  0  0  0  0  0  0  0  0
   -5.8422    3.7443  -12.0585 N   0  0  0  0  0  0  0  0  0  0  0  0
   -6.7106    4.8796  -12.5132 C   0  0  0  0  0  0  0  0  0  0  0  0
   -4.1091    4.7269  -15.3897 H   0  0  0  0  0  0  0  0  0  0  0  0
   -9.9888    4.3342   -5.4595 C   0  0  0  0  0  0  0  0  0  0  0  0
  -10.1001    3.4927   -6.6962 C   0  0  0  0  0  0  0  0  0  0  0  0
  -10.7550    2.1448   -6.6297 O   0  0  0  0  0  0  0  0  0  0  0  0
   -9.5567    3.9990   -7.9993 N   0  0  0  0  0  0  0  0  0  0  0  0
   -8.9018    5.3468   -8.0658 C   0  0  0  0  0  0  0  0  0  0  0  0
   -8.3583    5.8532   -9.3690 C   0  0  0  0  0  0  0  0  0  0  0  0
   -8.4696    5.0116  -10.6057 N   0  0  0  0  0  0  0  0  0  0  0  0
   -9.1245    3.6637  -10.5391 C   0  0  0  0  0  0  0  0  0  0  0  0
   -9.6680    3.1574   -9.2361 C   0  0  0  0  0  0  0  0  0  0  0  0
   -3.6722    2.5196  -13.0262 C   0  0  0  0  0  0  0  0  0  0  0  0
   -2.5824    1.4903  -12.9716 C   0  0  0  0  0  0  0  0  0  0  0  0
   -4.0791    2.1630  -11.6272 C   0  0  0  0  0  0  0  0  0  0  0  0
 11 12  1  0  0  0
 12 13  2  0  0  0
 12 14  1  0  0  0
 14 15  1  0  0  0
 15 16  1  0  0  0
 16 17  1  0  0  0
 17  1  1  0  0  0
  1  2  2  0  0  0
  2  3  1  0  0  0
  3  4  2  0  0  0
  4  5  1  0  0  0
  5  6  1  0  0  0
  6  7  1  0  0  0
  7 20  1  0  0  0
 20 21  1  0  0  0
 20 22  1  0  0  0
  7  8  2  0  0  0
  8  9  1  0  0  0
 17 18  1  0  0  0
 18 19  1  0  0  0
 19 14  1  0  0  0
  9  1  1  0  0  0
  9  5  2  0  0  0
  6 10  1  0  0  0
M  END
> <minimizedAffinity>
-6.40768

$$$$
mol_4


 22 24  0  0  0  0  0  0  0  0999 V2000
   -4.1458    6.3195  -19.5242 C   0  0  0  0  0  0  0  0  0  0  0  0
   -2.9171    6.6071  -18.7133 C   0  0  0  0  0  0  0  0  0  0  0  0
   -2.9821    6.5725  -17.2152 C   0  0  0  0  0  0  0  0  0  0  0  0
   -4.2759    6.2504  -16.5278 C   0  0  0  0  0  0  0  0  0  0  0  0
   -5.5046    5.9629  -17.3387 C   0  0  0  0  0  0  0  0  0  0  0  0
   -6.9098    5.6175  -16.9435 N   0  0  0  0  0  0  0  0  0  0  0  0
   -7.7132    5.4385  -18.1975 C   0  0  0  0  0  0  0  0  0  0  0  0
   -6.8046    5.6734  -19.3677 N   0  0  0  0  0  0  0  0  0  0  0  0
   -5.4396    5.9974  -18.8369 C   0  0  0  0  0  0  0  0  0  0  0  0
   -7.4217    5.4758  -15.5407 H   0  0  0  0  0  0  0  0  0  0  0  0
   -4.1909    7.7292  -26.2519 C   0  0  0  0  0  0  0  0  0  0  0  0
   -3.8856    6.4576  -25.5169 C   0  0  0  0  0  0  0  0  0  0  0  0
   -3.5153    5.2207  -26.2803 O   0  0  0  0  0  0  0  0  0  0  0  0
   -3.9507    6.4231  -24.0188 N   0  0  0  0  0  0  0  0  0  0  0  0
   -4.3210    7.6601  -23.2555 C   0  0  0  0  0  0  0  0  0  0  0  0
   -4.3860    7.6256  -21.7572 C   0  0  0  0  0  0  0  0  0  0  0  0
   -4.0808    6.3541  -21.0224 N   0  0  0  0  0  0  0  0  0  0  0  0
   -3.7104    5.1170  -21.7858 C   0  0  0  0  0  0  0  0  0  0  0  0
   -3.6454    5.1516  -23.2839 C   0  0  0  0  0  0  0  0  0  0  0  0
   -9.1696    5.0866  -18.2688 C   0  0  0  0  0  0  0  0  0  0  0  0
  -10.6260    4.7346  -18.3402 C   0  0  0  0  0  0  0  0  0  0  0  0
   -9.2135    4.9655  -16.7744 C   0  0  0  0  0  0  0  0  0  0  0  0
 11 12  1  0  0  0
 12 13  2  0  0  0
 12 14  1  0  0  0
 14 15  1  0  0  0
 15 16  1  0  0  0
 16 17  1  0  0  0
 17  1  1  0  0  0
  1  2  2  0  0  0
  2  3  1  0  0  0
  3  4  2  0  0  0
  4  5  1  0  0  0
  5  6  1  0  0  0
  6  7  1  0  0  0
  7 20  1  0  0  0
 20 21  1  0  0  0
 20 22  1  0  0  0
  7  8  2  0  0  0
  8  9  1  0  0  0
 17 18  1  0  0  0
 18 19  1  0  0  0
 19 14  1  0  0  0
  9  1  1  0  0  0
  9  5  2  0  0  0
  6 10  1  0  0  0
M  END
> <minimizedAffinity>
-6.32703

$$$$
mol_4


 22 24  0  0  0  0  0  0  0  0999 V2000
   -8.3813    5.5723  -15.6660 C   0  0  0  0  0  0  0  0  0  0  0  0
   -9.6223    5.1130  -16.3723 C   0  0  0  0  0  0  0  0  0  0  0  0
   -9.5953    4.8648  -17.8513 C   0  0  0  0  0  0  0  0  0  0  0  0
   -8.3272    5.0760  -18.6242 C   0  0  0  0  0  0  0  0  0  0  0  0
   -7.0861    5.5353  -17.9180 C   0  0  0  0  0  0  0  0  0  0  0  0
   -5.7000    5.8268  -18.4117 N   0  0  0  0  0  0  0  0  0  0  0  0
   -4.8704    6.2552  -17.2377 C   0  0  0  0  0  0  0  0  0  0  0  0
   -5.7438    6.2284  -16.0184 N   0  0  0  0  0  0  0  0  0  0  0  0
   -7.1132    5.7835  -16.4389 C   0  0  0  0  0  0  0  0  0  0  0  0
   -5.2267    5.7104  -19.8302 H   0  0  0  0  0  0  0  0  0  0  0  0
   -8.4766    5.4085   -8.7947 C   0  0  0  0  0  0  0  0  0  0  0  0
   -8.4895    6.5652   -9.7498 C   0  0  0  0  0  0  0  0  0  0  0  0
   -8.5295    7.9700   -9.2256 O   0  0  0  0  0  0  0  0  0  0  0  0
   -8.4625    6.3170  -11.2288 N   0  0  0  0  0  0  0  0  0  0  0  0
   -8.4225    4.9121  -11.7529 C   0  0  0  0  0  0  0  0  0  0  0  0
   -8.3954    4.6638  -13.2320 C   0  0  0  0  0  0  0  0  0  0  0  0
   -8.4084    5.8205  -14.1869 N   0  0  0  0  0  0  0  0  0  0  0  0
   -8.4483    7.2255  -13.6628 C   0  0  0  0  0  0  0  0  0  0  0  0
   -8.4754    7.4737  -12.1838 C   0  0  0  0  0  0  0  0  0  0  0  0
   -3.4218    6.6423  -17.2761 C   0  0  0  0  0  0  0  0  0  0  0  0
   -1.9731    7.0294  -17.3146 C   0  0  0  0  0  0  0  0  0  0  0  0
   -3.2248    5.7847  -18.4909 C   0  0  0  0  0  0  0  0  0  0  0  0
 11 12  1  0  0  0
 12 13  2  0  0  0
 12 14  1  0  0  0
 14 15  1  0  0  0
 15 16  1  0  0  0
 16 17  1  0  0  0
 17  1  1  0  0  0
  1  2  2  0  0  0
  2  3  1  0  0  0
  3  4  2  0  0  0
  4  5  1  0  0  0
  5  6  1  0  0  0
  6  7  1  0  0  0
  7 20  1  0  0  0
 20 21  1  0  0  0
 20 22  1  0  0  0
  7  8  2  0  0  0
  8  9  1  0  0  0
 17 18  1  0  0  0
 18 19  1  0  0  0
 19 14  1  0  0  0
  9  1  1  0  0  0
  9  5  2  0  0  0
  6 10  1  0  0  0
M  END
> <minimizedAffinity>
-6.06506

$$$$
mol_5


 22 24  0  0  0  0  0  0  0  0999 V2000
   -7.9261    5.5179  -11.9089 C   0  0  0  0  0  0  0  0  0  0  0  0
   -8.5981    6.6624  -12.6077 C   0  0  0  0  0  0  0  0  0  0  0  0
   -8.0547    7.1687  -13.9109 C   0  0  0  0  0  0  0  0  0  0  0  0
   -6.8391    6.5304  -14.5152 C   0  0  0  0  0  0  0  0  0  0  0  0
   -6.1671    5.3859  -13.8164 C   0  0  0  0  0  0  0  0  0  0  0  0
   -4.9628    4.5635  -14.1672 N   0  0  0  0  0  0  0  0  0  0  0  0
   -4.7619    3.5489  -13.0808 C   0  0  0  0  0  0  0  0  0  0  0  0
   -5.8422    3.7443  -12.0585 N   0  0  0  0  0  0  0  0  0  0  0  0
   -6.7106    4.8796  -12.5132 C   0  0  0  0  0  0  0  0  0  0  0  0
   -4.1091    4.7269  -15.3897 H   0  0  0  0  0  0  0  0  0  0  0  0
   -9.9888    4.3342   -5.4595 C   0  0  0  0  0  0  0  0  0  0  0  0
  -10.1001    3.4927   -6.6962 C   0  0  0  0  0  0  0  0  0  0  0  0
  -10.7550    2.1448   -6.6297 O   0  0  0  0  0  0  0  0  0  0  0  0
   -9.5567    3.9990   -7.9993 N   0  0  0  0  0  0  0  0  0  0  0  0
   -8.9018    5.3468   -8.0658 C   0  0  0  0  0  0  0  0  0  0  0  0
   -8.3583    5.8532   -9.3690 C   0  0  0  0  0  0  0  0  0  0  0  0
   -8.4696    5.0116  -10.6057 N   0  0  0  0  0  0  0  0  0  0  0  0
   -9.1245    3.6637  -10.5391 C   0  0  0  0  0  0  0  0  0  0  0  0
   -9.6680    3.1574   -9.2361 C   0  0  0  0  0  0  0  0  0  0  0  0
   -3.6722    2.5196  -13.0262 C   0  0  0  0  0  0  0  0  0  0  0  0
   -2.5824    1.4903  -12.9716 C   0  0  0  0  0  0  0  0  0  0  0  0
   -4.0791    2.1630  -11.6272 C   0  0  0  0  0  0  0  0  0  0  0  0
 11 12  1  0  0  0
 12 13  2  0  0  0
 12 14  1  0  0  0
 14 15  1  0  0  0
 15 16  1  0  0  0
 16 17  1  0  0  0
 17  1  1  0  0  0
  1  2  2  0  0  0
  2  3  1  0  0  0
  3  4  2  0  0  0
  4  5  1  0  0  0
  5  6  1  0  0  0
  6  7  1  0  0  0
  7 20  1  0  0  0
 20 21  1  0  0  0
 20 22  1  0  0  0
  7  8  2  0  0  0
  8  9  1  0  0  0
 17 18  1  0  0  0
 18 19  1  0  0  0
 19 14  1  0  0  0
  9  1  1  0  0  0
  9  5  2  0  0  0
  6 10  1  0  0  0
M  END
> <minimizedAffinity>
-6.40768

$$$$
mol_5


 22 24  0  0  0  0  0  0  0  0999 V2000
   -4.1458    6.3195  -19.5242 C   0  0  0  0  0  0  0  0  0  0  0  0
   -2.9171    6.6071  -18.7133 C   0  0  0  0  0  0  0  0  0  0  0  0
   -2.9821    6.5725  -17.2152 C   0  0  0  0  0  0  0  0  0  0  0  0
   -4.2759    6.2504  -16.5278 C   0  0  0  0  0  0  0  0  0  0  0  0
   -5.5046    5.9629  -17.3387 C   0  0  0  0  0  0  0  0  0  0  0  0
   -6.9098    5.6175  -16.9435 N   0  0  0  0  0  0  0  0  0  0  0  0
   -7.7132    5.4385  -18.1975 C   0  0  0  0  0  0  0  0  0  0  0  0
   -6.8046    5.6734  -19.3677 N   0  0  0  0  0  0  0  0  0  0  0  0
   -5.4396    5.9974  -18.8369 C   0  0  0  0  0  0  0  0  0  0  0  0
   -7.4217    5.4758  -15.5407 H   0  0  0  0  0  0  0  0  0  0  0  0
   -4.1909    7.7292  -26.2519 C   0  0  0  0  0  0  0  0  0  0  0  0
   -3.8856    6.4576  -25.5169 C   0  0  0  0  0  0  0  0  0  0  0  0
   -3.5153    5.2207  -26.2803 O   0  0  0  0  0  0  0  0  0  0  0  0
   -3.9507    6.4231  -24.0188 N   0  0  0  0  0  0  0  0  0  0  0  0
   -4.3210    7.6601  -23.2555 C   0  0  0  0  0  0  0  0  0  0  0  0
   -4.3860    7.6256  -21.7572 C   0  0  0  0  0  0  0  0  0  0  0  0
   -4.0808    6.3541  -21.0224 N   0  0  0  0  0  0  0  0  0  0  0  0
   -3.7104    5.1170  -21.7858 C   0  0  0  0  0  0  0  0  0  0  0  0
   -3.6454    5.1516  -23.2839 C   0  0  0  0  0  0  0  0  0  0  0  0
   -9.1696    5.0866  -18.2688 C   0  0  0  0  0  0  0  0  0  0  0  0
  -10.6260    4.7346  -18.3402 C   0  0  0  0  0  0  0  0  0  0  0  0
   -9.2135    4.9655  -16.7744 C   0  0  0  0  0  0  0  0  0  0  0  0
 11 12  1  0  0  0
 12 13  2  0  0  0
 12 14  1  0  0  0
 14 15  1  0  0  0
 15 16  1  0  0  0
 16 17  1  0  0  0
 17  1  1  0  0  0
  1  2  2  0  0  0
  2  3  1  0  0  0
  3  4  2  0  0  0
  4  5  1  0  0  0
  5  6  1  0  0  0
  6  7  1  0  0  0
  7 20  1  0  0  0
 20 21  1  0  0  0
 20 22  1  0  0  0
  7  8  2  0  0  0
  8  9  1  0  0  0
 17 18  1  0  0  0
 18 19  1  0  0  0
 19 14  1  0  0  0
  9  1  1  0  0  0
  9  5  2  0  0  0
  6 10  1  0  0  0
M  END
> <minimizedAffinity>
-6.32703

$$$$
mol_5


 22 24  0  0  0  0  0  0  0  0999 V2000
   -8.3813    5.5723  -15.6660 C   0  0  0  0  0  0  0  0  0  0  0  0
   -9.6223    5.1130  -16.3723 C   0  0  0  0  0  0  0  0  0  0  0  0
   -9.5953    4.8648  -17.8513 C   0  0  0  0  0  0  0  0  0  0  0  0
   -8.3272    5.0760  -18.6242 C   0  0  0  0  0  0  0  0  0  0  0  0
   -7.0861    5.5353  -17.9180 C   0  0  0  0  0  0  0  0  0  0  0  0
   -5.7000    5.8268  -18.4117 N   0  0  0  0  0  0  0  0  0  0  0  0
   -4.8704    6.2552  -17.2377 C   0  0  0  0  0  0  0  0  0  0  0  0
   -5.7438    6.2284  -16.0184 N   0  0  0  0  0  0  0  0  0  0  0  0
   -7.1132    5.7835  -16.4389 C   0  0  0  0  0  0  0  0  0  0  0  0
   -5.2267    5.7104  -19.8302 H   0  0  0  0  0  0  0  0  0  0  0  0
   -8.4766    5.4085   -8.7947 C   0  0  0  0  0  0  0  0  0  0  0  0
   -8.4895    6.5652   -9.7498 C   0  0  0  0  0  0  0  0  0  0  0  0
   -8.5295    7.9700   -9.2256 O   0  0  0  0  0  0  0  0  0  0  0  0
   -8.4625    6.3170  -11.2288 N   0  0  0  0  0  0  0  0  0  0  0  0
   -8.4225    4.9121  -11.7529 C   0  0  0  0  0  0  0  0  0  0  0  0
   -8.3954    4.6638  -13.2320 C   0  0  0  0  0  0  0  0  0  0  0  0
   -8.4084    5.8205  -14.1869 N   0  0  0  0  0  0  0  0  0  0  0  0
   -8.4483    7.2255  -13.6628 C   0  0  0  0  0  0  0  0  0  0  0  0
   -8.4754    7.4737  -12.1838 C   0  0  0  0  0  0  0  0  0  0  0  0
   -3.4218    6.6423  -17.2761 C   0  0  0  0  0  0  0  0  0  0  0  0
   -1.9731    7.0294  -17.3146 C   0  0  0  0  0  0  0  0  0  0  0  0
   -3.2248    5.7847  -18.4909 C   0  0  0  0  0  0  0  0  0  0  0  0
 11 12  1  0  0  0
 12 13  2  0  0  0
 12 14  1  0  0  0
 14 15  1  0  0  0
 15 16  1  0  0  0
 16 17  1  0  0  0
 17  1  1  0  0  0
  1  2  2  0  0  0
  2  3  1  0  0  0
  3  4  2  0  0  0
  4  5  1  0  0  0
  5  6  1  0  0  0
  6  7  1  0  0  0
  7 20  1  0  0  0
 20 21  1  0  0  0
 20 22  1  0  0  0
  7  8  2  0  0  0
  8  9  1  0  0  0
 17 18  1  0  0  0
 18 19  1  0  0  0
 19 14  1  0  0  0
  9  1  1  0  0  0
  9  5  2  0  0  0
  6 10  1  0  0  0
M  END
> <minimizedAffinity>
-6.06506

$$$$
mol_6


 22 24  0  0  0  0  0  0  0  0999 V2000
   -7.9261    5.5179  -11.9089 C   0  0  0  0  0  0  0  0  0  0  0  0
   -8.5981    6.6624  -12.6077 C   0  0  0  0  0  0  0  0  0  0  0  0
   -8.0547    7.1687  -13.9109 C   0  0  0  0  0  0  0  0  0  0  0  0
   -6.8391    6.5304  -14.5152 C   0  0  0  0  0  0  0  0  0  0  0  0
   -6.1671    5.3859  -13.8164 C   0  0  0  0  0  0  0  0  0  0  0  0
   -4.9628    4.5635  -14.1672 N   0  0  0  0  0  0  0  0  0  0  0  0
   -4.7619    3.5489  -13.0808 C   0  0  0  0  0  0  0  0  0  0  0  0
   -5.8422    3.7443  -12.0585 N   0  0  0  0  0  0  0  0  0  0  0  0
   -6.7106    4.8796  -12.5132 C   0  0  0  0  0  0  0  0  0  0  0  0
   -4.1091    4.7269  -15.3897 H   0  0  0  0  0  0  0  0  0  0  0  0
   -9.9888    4.3342   -5.4595 C   0  0  0  0  0  0  0  0  0  0  0  0
  -10.1001    3.4927   -6.6962 C   0  0  0  0  0  0  0  0  0  0  0  0
  -10.7550    2.1448   -6.6297 O   0  0  0  0  0  0  0  0  0  0  0  0
   -9.5567    3.9990   -7.9993 N   0  0  0  0  0  0  0  0  0  0  0  0
   -8.9018    5.3468   -8.0658 C   0  0  0  0  0  0  0  0  0  0  0  0
   -8.3583    5.8532   -9.3690 C   0  0  0  0  0  0  0  0  0  0  0  0
   -8.4696    5.0116  -10.6057 N   0  0  0  0  0  0  0  0  0  0  0  0
   -9.1245    3.6637  -10.5391 C   0  0  0  0  0  0  0  0  0  0  0  0
   -9.6680    3.1574   -9.2361 C   0  0  0  0  0  0  0  0  0  0  0  0
   -3.6722    2.5196  -13.0262 C   0  0  0  0  0  0  0  0  0  0  0  0
   -2.5824    1.4903  -12.9716 C   0  0  0  0  0  0  0  0  0  0  0  0
   -4.0791    2.1630  -11.6272 C   0  0  0  0  0  0  0  0  0  0  0  0
 11 12  1  0  0  0
 12 13  2  0  0  0
 12 14  1  0  0  0
 14 15  1  0  0  0
 15 16  1  0  0  0
 16 17  1  0  0  0
 17  1  1  0  0  0
  1  2  2  0  0  0
  2  3  1  0  0  0
  3  4  2  0  0  0
  4  5  1  0  0  0
  5  6  1  0  0  0
  6  7  1  0  0  0
  7 20  1  0  0  0
 20 21  1  0  0  0
 20 22  1  0  0  0
  7  8  2  0  0  0
  8  9  1  0  0  0
 17 18  1  0  0  0
 18 19  1  0  0  0
 19 14  1  0  0  0
  9  1  1  0  0  0
  9  5  2  0  0  0
  6 10  1  0  0  0
M  END
> <minimizedAffinity>
-6.40768

$$$$
mol_6


 22 24  0  0  0  0  0  0  0  0999 V2000
   -4.1458    6.3195  -19.5242 C   0  0  0  0  0  0  0  0  0  0  0  0
   -2.9171    6.6071  -18.7133 C   0  0  0  0  0  0  0  0  0  0  0  0
   -2.9821    6.5725  -17.2152 C   0  0  0  0  0  0  0  0  0  0  0  0
   -4.2759    6.2504  -16.5278 C   0  0  0  0  0  0  0  0  0  0  0  0
   -5.5046    5.9629  -17.3387 C   0  0  0  0  0  0  0  0  0  0  0  0
   -6.9098    5.6175  -16.9435 N   0  0  0  0  0  0  0  0  0  0  0  0
   -7.7132    5.4385  -18.1975 C   0  0  0  0  0  0  0  0  0  0  0  0
   -6.8046    5.6734  -19.3677 N   0  0  0  0  0  0  0  0  0  0  0  0
   -5.4396    5.9974  -18.8369 C   0  0  0  0  0  0  0  0  0  0  0  0
   -7.4217    5.4758  -15.5407 H   0  0  0  0  0  0  0  0  0  0  0  0
   -4.1909    7.7292  -26.2519 C   0  0  0  0  0  0  0  0  0  0  0  0
   -3.8856    6.4576  -25.5169 C   0  0  0  0  0  0  0  0  0  0  0  0
   -3.5153    5.2207  -26.2803 O   0  0  0  0  0  0  0  0  0  0  0  0
   -3.9507    6.4231  -24.0188 N   0  0  0  0  0  0  0  0  0  0  0  0
   -4.3210    7.6601  -23.2555 C   0  0  0  0  0  0  0  0  0  0  0  0
   -4.3860    7.6256  -21.7572 C   0  0  0  0  0  0  0  0  0  0  0  0
   -4.0808    6.3541  -21.0224 N   0  0  0  0  0  0  0  0  0  0  0  0
   -3.7104    5.1170  -21.7858 C   0  0  0  0  0  0  0  0  0  0  0  0
   -3.6454    5.1516  -23.2839 C   0  0  0  0  0  0  0  0  0  0  0  0
   -9.1696    5.0866  -18.2688 C   0  0  0  0  0  0  0  0  0  0  0  0
  -10.6260    4.7346  -18.3402 C   0  0  0  0  0  0  0  0  0  0  0  0
   -9.2135    4.9655  -16.7744 C   0  0  0  0  0  0  0  0  0  0  0  0
 11 12  1  0  0  0
 12 13  2  0  0  0
 12 14  1  0  0  0
 14 15  1  0  0  0
 15 16  1  0  0  0
 16 17  1  0  0  0
 17  1  1  0  0  0
  1  2  2  0  0  0
  2  3  1  0  0  0
  3  4  2  0  0  0
  4  5  1  0  0  0
  5  6  1  0  0  0
  6  7  1  0  0  0
  7 20  1  0  0  0
 20 21  1  0  0  0
 20 22  1  0  0  0
  7  8  2  0  0  0
  8  9  1  0  0  0
 17 18  1  0  0  0
 18 19  1  0  0  0
 19 14  1  0  0  0
  9  1  1  0  0  0
  9  5  2  0  0  0
  6 10  1  0  0  0
M  END
> <minimizedAffinity>
-6.32703

$$$$
mol_6


 22 24  0  0  0  0  0  0  0  0999 V2000
   -8.3813    5.5723  -15.6660 C   0  0  0  0  0  0  0  0  0  0  0  0
   -9.6223    5.1130  -16.3723 C   0  0  0  0  0  0  0  0  0  0  0  0
   -9.5953    4.8648  -17.8513 C   0  0  0  0  0  0  0  0  0  0  0  0
   -8.3272    5.0760  -18.6242 C   0  0  0  0  0  0  0  0  0  0  0  0
   -7.0861    5.5353  -17.9180 C   0  0  0  0  0  0  0  0  0  0  0  0
   -5.7000    5.8268  -18.4117 N   0  0  0  0  0  0  0  0  0  0  0  0
   -4.8704    6.2552  -17.2377 C   0  0  0  0  0  0  0  0  0  0  0  0
   -5.7438    6.2284  -16.0184 N   0  0  0  0  0  0  0  0  0  0  0  0
   -7.1132    5.7835  -16.4389 C   0  0  0  0  0  0  0  0  0  0  0  0
   -5.2267    5.7104  -19.8302 H   0  0  0  0  0  0  0  0  0  0  0  0
   -8.4766    5.4085   -8.7947 C   0  0  0  0  0  0  0  0  0  0  0  0
   -8.4895    6.5652   -9.7498 C   0  0  0  0  0  0  0  0  0  0  0  0
   -8.5295    7.9700   -9.2256 O   0  0  0  0  0  0  0  0  0  0  0  0
   -8.4625    6.3170  -11.2288 N   0  0  0  0  0  0  0  0  0  0  0  0
   -8.4225    4.9121  -11.7529 C   0  0  0  0  0  0  0  0  0  0  0  0
   -8.3954    4.6638  -13.2320 C   0  0  0  0  0  0  0  0  0  0  0  0
   -8.4084    5.8205  -14.1869 N   0  0  0  0  0  0  0  0  0  0  0  0
   -8.4483    7.2255  -13.6628 C   0  0  0  0  0  0  0  0  0  0  0  0
   -8.4754    7.4737  -12.1838 C   0  0  0  0  0  0  0  0  0  0  0  0
   -3.4218    6.6423  -17.2761 C   0  0  0  0  0  0  0  0  0  0  0  0
   -1.9731    7.0294  -17.3146 C   0  0  0  0  0  0  0  0  0  0  0  0
   -3.2248    5.7847  -18.4909 C   0  0  0  0  0  0  0  0  0  0  0  0
 11 12  1  0  0  0
 12 13  2  0  0  0
 12 14  1  0  0  0
 14 15  1  0  0  0
 15 16  1  0  0  0
 16 17  1  0  0  0
 17  1  1  0  0  0
  1  2  2  0  0  0
  2  3  1  0  0  0
  3  4  2  0  0  0
  4  5  1  0  0  0
  5  6  1  0  0  0
  6  7  1  0  0  0
  7 20  1  0  0  0
 20 21  1  0  0  0
 20 22  1  0  0  0
  7  8  2  0  0  0
  8  9  1  0  0  0
 17 18  1  0  0  0
 18 19  1  0  0  0
 19 14  1  0  0  0
  9  1  1  0  0  0
  9  5  2  0  0  0
  6 10  1  0  0  0
M  END
> <minimizedAffinity>
-6.06506

$$$$
mol_7


 22 24  0  0  0  0  0  0  0  0999 V2000
   -7.9261    5.5179  -11.9089 C   0  0  0  0  0  0  0  0  0  0  0  0
   -8.5981    6.6624  -12.6077 C   0  0  0  0  0  0  0  0  0  0  0  0
   -8.0547    7.1687  -13.9109 C   0  0  0  0  0  0  0  0  0  0  0  0
   -6.8391    6.5304  -14.5152 C   0  0  0  0  0  0  0  0  0  0  0  0
   -6.1671    5.3859  -13.8164 C   0  0  0  0  0  0  0  0  0  0  0  0
   -4.9628    4.5635  -14.1672 N   0  0  0  0  0  0  0  0  0  0  0  0
   -4.7619    3.5489  -13.0808 C   0  0  0  0  0  0  0  0  0  0  0  0
   -5.8422    3.7443  -12.0585 N   0  0  0  0  0  0  0  0  0  0  0  0
   -6.7106    4.8796  -12.5132 C   0  0  0  0  0  0  0  0  0  0  0  0
   -4.1091    4.7269  -15.3897 H   0  0  0  0  0  0  0  0  0  0  0  0
   -9.9888    4.3342   -5.4595 C   0  0  0  0  0  0  0  0  0  0  0  0
  -10.1001    3.4927   -6.6962 C   0  0  0  0  0  0  0  0  0  0  0  0
  -10.7550    2.1448   -6.6297 O   0  0  0  0  0  0  0  0  0  0  0  0
   -9.5567    3.9990   -7.9993 N   0  0  0  0  0  0  0  0  0  0  0  0
   -8.9018    5.3468   -8.0658 C   0  0  0  0  0  0  0  0  0  0  0  0
   -8.3583    5.8532   -9.3690 C   0  0  0  0  0  0  0  0  0  0  0  0
   -8.4696    5.0116  -10.6057 N   0  0  0  0  0  0  0  0  0  0  0  0
   -9.1245    3.6637  -10.5391 C   0  0  0  0  0  0  0  0  0  0  0  0
   -9.6680    3.1574   -9.2361 C   0  0  0  0  0  0  0  0  0  0  0  0
   -3.6722    2.5196  -13.0262 C   0  0  0  0  0  0  0  0  0  0  0  0
   -2.5824    1.4903  -12.9716 C   0  0  0  0  0  0  0  0  0  0  0  0
   -4.0791    2.1630  -11.6272 C   0  0  0  0  0  0  0  0  0  0  0  0
 11 12  1  0  0  0
 12 13  2  0  0  0
 12 14  1  0  0  0
 14 15  1  0  0  0
 15 16  1  0  0  0
 16 17  1  0  0  0
 17  1  1  0  0  0
  1  2  2  0  0  0
  2  3  1  0  0  0
  3  4  2  0  0  0
  4  5  1  0  0  0
  5  6  1  0  0  0
  6  7  1  0  0  0
  7 20  1  0  0  0
 20 21  1  0  0  0
 20 22  1  0  0  0
  7  8  2  0  0  0
  8  9  1  0  0  0
 17 18  1  0  0  0
 18 19  1  0  0  0
 19 14  1  0  0  0
  9  1  1  0  0  0
  9  5  2  0  0  0
  6 10  1  0  0  0
M  END
> <minimizedAffinity>
-6.40768

$$$$
mol_7


 22 24  0  0  0  0  0  0  0  0999 V2000
   -4.1458    6.3195  -19.5242 C   0  0  0  0  0  0  0  0  0  0  0  0
   -2.9171    6.6071  -18.7133 C   0  0  0  0  0  0  0  0  0  0  0  0
   -2.9821    6.5725  -17.2152 C   0  0  0  0  0  0  0  0  0  0  0  0
   -4.2759    6.2504  -16.5278 C   0  0  0  0  0  0  0  0  0  0  0  0
   -5.5046    5.9629  -17.3387 C   0  0  0  0  0  0  0  0  0  0  0  0
   -6.9098    5.6175  -16.9435 N   0  0  0  0  0  0  0  0  0  0  0  0
   -7.7132    5.4385  -18.1975 C   0  0  0  0  0  0  0  0  0  0  0  0
   -6.8046    5.6734  -19.3677 N   0  0  0  0  0  0  0  0  0  0  0  0
   -5.4396    5.9974  -18.8369 C   0  0  0  0  0  0  0  0  0  0  0  0
   -7.4217    5.4758  -15.5407 H   0  0  0  0  0  0  0  0  0  0  0  0
   -4.1909    7.7292  -26.2519 C   0  0  0  0  0  0  0  0  0  0  0  0
   -3.8856    6.4576  -25.5169 C   0  0  0  0  0  0  0  0  0  0  0  0
   -3.5153    5.2207  -26.2803 O   0  0  0  0  0  0  0  0  0  0  0  0
   -3.9507    6.4231  -24.0188 N   0  0  0  0  0  0  0  0  0  0  0  0
   -4.3210    7.6601  -23.2555 C   0  0  0  0  0  0  0  0  0  0  0  0
   -4.3860    7.6256  -21.7572 C   0  0  0  0  0  0  0  0  0  0  0  0
   -4.0808    6.3541  -21.0224 N   0  0  0  0  0  0  0  0  0  0  0  0
   -3.7104    5.1170  -21.7858 C   0  0  0  0  0  0  0  0  0  0  0  0
   -3.6454    5.1516  -23.2839 C   0  0  0  0  0  0  0  0  0  0  0  0
   -9.1696    5.0866  -18.2688 C   0  0  0  0  0  0  0  0  0  0  0  0
  -10.6260    4.7346  -18.3402 C   0  0  0  0  0  0  0  0  0  0  0  0
   -9.2135    4.9655  -16.7744 C   0  0  0  0  0  0  0  0  0  0  0  0
 11 12  1  0  0  0
 12 13  2  0  0  0
 12 14  1  0  0  0
 14 15  1  0  0  0
 15 16  1  0  0  0
 16 17  1  0  0  0
 17  1  1  0  0  0
  1  2  2  0  0  0
  2  3  1  0  0  0
  3  4  2  0  0  0
  4  5  1  0  0  0
  5  6  1  0  0  0
  6  7  1  0  0  0
  7 20  1  0  0  0
 20 21  1  0  0  0
 20 22  1  0  0  0
  7  8  2  0  0  0
  8  9  1  0  0  0
 17 18  1  0  0  0
 18 19  1  0  0  0
 19 14  1  0  0  0
  9  1  1  0  0  0
  9  5  2  0  0  0
  6 10  1  0  0  0
M  END
> <minimizedAffinity>
-6.32703

$$$$
mol_7


 22 24  0  0  0  0  0  0  0  0999 V2000
   -8.3813    5.5723  -15.6660 C   0  0  0  0  0  0  0  0  0  0  0  0
   -9.6223    5.1130  -16.3723 C   0  0  0  0  0  0  0  0  0  0  0  0
   -9.5953    4.8648  -17.8513 C   0  0  0  0  0  0  0  0  0  0  0  0
   -8.3272    5.0760  -18.6242 C   0  0  0  0  0  0  0  0  0  0  0  0
   -7.0861    5.5353  -17.9180 C   0  0  0  0  0  0  0  0  0  0  0  0
   -5.7000    5.8268  -18.4117 N   0  0  0  0  0  0  0  0  0  0  0  0
   -4.8704    6.2552  -17.2377 C   0  0  0  0  0  0  0  0  0  0  0  0
   -5.7438    6.2284  -16.0184 N   0  0  0  0  0  0  0  0  0  0  0  0
   -7.1132    5.7835  -16.4389 C   0  0  0  0  0  0  0  0  0  0  0  0
   -5.2267    5.7104  -19.8302 H   0  0  0  0  0  0  0  0  0  0  0  0
   -8.4766    5.4085   -8.7947 C   0  0  0  0  0  0  0  0  0  0  0  0
   -8.4895    6.5652   -9.7498 C   0  0  0  0  0  0  0  0  0  0  0  0
   -8.5295    7.9700   -9.2256 O   0  0  0  0  0  0  0  0  0  0  0  0
   -8.4625    6.3170  -11.2288 N   0  0  0  0  0  0  0  0  0  0  0  0
   -8.4225    4.9121  -11.7529 C   0  0  0  0  0  0  0  0  0  0  0  0
   -8.3954    4.6638  -13.2320 C   0  0  0  0  0  0  0  0  0  0  0  0
   -8.4084    5.8205  -14.1869 N   0  0  0  0  0  0  0  0  0  0  0  0
   -8.4483    7.2255  -13.6628 C   0  0  0  0  0  0  0  0  0  0  0  0
   -8.4754    7.4737  -12.1838 C   0  0  0  0  0  0  0  0  0  0  0  0
   -3.4218    6.6423  -17.2761 C   0  0  0  0  0  0  0  0  0  0  0  0
   -1.9731    7.0294  -17.3146 C   0  0  0  0  0  0  0  0  0  0  0  0
   -3.2248    5.7847  -18.4909 C   0  0  0  0  0  0  0  0  0  0  0  0
 11 12  1  0  0  0
 12 13  2  0  0  0
 12 14  1  0  0  0
 14 15  1  0  0  0
 15 16  1  0  0  0
 16 17  1  0  0  0
 17  1  1  0  0  0
  1  2  2  0  0  0
  2  3  1  0  0  0
  3  4  2  0  0  0
  4  5  1  0  0  0
  5  6  1  0  0  0
  6  7  1  0  0  0
  7 20  1  0  0  0
 20 21  1  0  0  0
 20 22  1  0  0  0
  7  8  2  0  0  0
  8  9  1  0  0  0
 17 18  1  0  0  0
 18 19  1  0  0  0
 19 14  1  0  0  0
  9  1  1  0  0  0
  9  5  2  0  0  0
  6 10  1  0  0  0
M  END
> <minimizedAffinity>
-6.06506

$$$$
mol_8


 23 25  0  0  0  0  0  0  0  0999 V2000
   -8.2521    5.2806  -16.4428 C   0  0  0  0  0  0  0  0  0  0  0  0
   -8.2290    5.0582  -14.9595 N   0  0  0  0  0  0  0  0  0  0  0  0
   -6.8760    5.4599  -14.4516 C   0  0  0  0  0  0  0  0  0  0  0  0
   -6.2794    5.4579  -13.0754 C   0  0  0  0  0  0  0  0  0  0  0  0
   -4.8695    5.9265  -12.8684 C   0  0  0  0  0  0  0  0  0  0  0  0
   -4.0564    6.3972  -14.0377 C   0  0  0  0  0  0  0  0  0  0  0  0
   -4.6531    6.3991  -15.4140 C   0  0  0  0  0  0  0  0  0  0  0  0
   -6.0628    5.9305  -15.6209 C   0  0  0  0  0  0  0  0  0  0  0  0
   -6.9133    5.8197  -16.8515 N   0  0  0  0  0  0  0  0  0  0  0  0
   -6.4979    6.1840  -18.2460 H   0  0  0  0  0  0  0  0  0  0  0  0
   -7.0925    4.9872  -11.9060 N   0  0  0  0  0  0  0  0  0  0  0  0
   -6.6576    5.4964  -10.5638 C   0  0  0  0  0  0  0  0  0  0  0  0
   -7.2558    5.2138   -9.2176 C   0  0  0  0  0  0  0  0  0  0  0  0
   -8.4367    4.3521   -8.8811 O   0  0  0  0  0  0  0  0  0  0  0  0
   -9.3110    3.5603   -9.8078 C   0  0  0  0  0  0  0  0  0  0  0  0
   -9.2203    3.4347  -11.2998 C   0  0  0  0  0  0  0  0  0  0  0  0
   -8.2330    4.0697  -12.2336 C   0  0  0  0  0  0  0  0  0  0  0  0
   -9.9092    3.2777   -8.4616 C   0  0  0  0  0  0  0  0  0  0  0  0
  -10.5073    2.9950   -7.1154 O   0  0  0  0  0  0  0  0  0  0  0  0
   -9.7696    3.3870   -5.8696 H   0  0  0  0  0  0  0  0  0  0  0  0
  -10.5690    4.7417  -18.2708 C   0  0  0  0  0  0  0  0  0  0  0  0
   -9.4105    5.0111  -17.3568 C   0  0  0  0  0  0  0  0  0  0  0  0
   -8.4860    5.0421  -18.5376 C   0  0  0  0  0  0  0  0  0  0  0  0
 21 22  1  0  0  0
 22 23  1  0  0  0
 22  1  1  0  0  0
  1  2  2  0  0  0
  2  3  1  0  0  0
  3  4  2  0  0  0
  4 11  1  0  0  0
 11 12  1  0  0  0
 12 13  1  0  0  0
 13 14  1  0  0  0
 14 15  1  0  0  0
 15 18  1  0  0  0
 18 19  1  0  0  0
 15 16  1  0  0  0
 16 17  1  0  0  0
  4  5  1  0  0  0
  5  6  2  0  0  0
  6  7  1  0  0  0
  7  8  2  0  0  0
  8  9  1  0  0  0
  9  1  1  0  0  0
  8  3  1  0  0  0
 17 11  1  0  0  0
 19 20  1  0  0  0
  9 10  1  0  0  0
M  END
> <minimizedAffinity>
-6.68444

$$$$
mol_8


 23 25  0  0  0  0  0  0  0  0999 V2000
   -7.5932    5.4243  -17.9438 C   0  0  0  0  0  0  0  0  0  0  0  0
   -6.6437    5.7186  -19.0671 N   0  0  0  0  0  0  0  0  0  0  0  0
   -5.3155    6.0772  -18.4694 C   0  0  0  0  0  0  0  0  0  0  0  0
   -4.0056    6.4605  -19.0916 C   0  0  0  0  0  0  0  0  0  0  0  0
   -2.8242    6.7712  -18.2210 C   0  0  0  0  0  0  0  0  0  0  0  0
   -2.9528    6.6986  -16.7283 C   0  0  0  0  0  0  0  0  0  0  0  0
   -4.2628    6.3153  -16.1062 C   0  0  0  0  0  0  0  0  0  0  0  0
   -5.4441    6.0046  -16.9767 C   0  0  0  0  0  0  0  0  0  0  0  0
   -6.8518    5.6010  -16.6519 N   0  0  0  0  0  0  0  0  0  0  0  0
   -7.4186    5.4082  -15.2765 H   0  0  0  0  0  0  0  0  0  0  0  0
   -3.8770    6.5331  -20.5843 N   0  0  0  0  0  0  0  0  0  0  0  0
   -3.6552    7.9036  -21.1525 C   0  0  0  0  0  0  0  0  0  0  0  0
   -3.4888    8.3051  -22.5882 C   0  0  0  0  0  0  0  0  0  0  0  0
   -3.5031    7.4352  -23.8103 O   0  0  0  0  0  0  0  0  0  0  0  0
   -3.6873    5.9492  -23.8984 C   0  0  0  0  0  0  0  0  0  0  0  0
   -3.9027    4.9659  -22.7863 C   0  0  0  0  0  0  0  0  0  0  0  0
   -3.9871    5.2258  -21.3114 C   0  0  0  0  0  0  0  0  0  0  0  0
   -3.5209    6.3507  -25.3341 C   0  0  0  0  0  0  0  0  0  0  0  0
   -3.3546    6.7522  -26.7697 O   0  0  0  0  0  0  0  0  0  0  0  0
   -2.9117    5.7407  -27.7849 H   0  0  0  0  0  0  0  0  0  0  0  0
  -10.4700    4.6229  -18.2306 C   0  0  0  0  0  0  0  0  0  0  0  0
   -9.0316    5.0236  -18.0872 C   0  0  0  0  0  0  0  0  0  0  0  0
   -9.1665    4.9735  -16.5941 C   0  0  0  0  0  0  0  0  0  0  0  0
 21 22  1  0  0  0
 22 23  1  0  0  0
 22  1  1  0  0  0
  1  2  2  0  0  0
  2  3  1  0  0  0
  3  4  2  0  0  0
  4 11  1  0  0  0
 11 12  1  0  0  0
 12 13  1  0  0  0
 13 14  1  0  0  0
 14 15  1  0  0  0
 15 18  1  0  0  0
 18 19  1  0  0  0
 15 16  1  0  0  0
 16 17  1  0  0  0
  4  5  1  0  0  0
  5  6  2  0  0  0
  6  7  1  0  0  0
  7  8  2  0  0  0
  8  9  1  0  0  0
  9  1  1  0  0  0
  8  3  1  0  0  0
 17 11  1  0  0  0
 19 20  1  0  0  0
  9 10  1  0  0  0
M  END
> <minimizedAffinity>
-6.41414

$$$$
mol_8


 23 25  0  0  0  0  0  0  0  0999 V2000
   -4.3198    3.3161  -12.0426 C   0  0  0  0  0  0  0  0  0  0  0  0
   -5.5370    3.5719  -11.2042 N   0  0  0  0  0  0  0  0  0  0  0  0
   -6.4941    4.3944  -12.0151 C   0  0  0  0  0  0  0  0  0  0  0  0
   -7.8544    4.9460  -11.7068 C   0  0  0  0  0  0  0  0  0  0  0  0
   -8.5891    5.7502  -12.7381 C   0  0  0  0  0  0  0  0  0  0  0  0
   -7.9634    6.0028  -14.0778 C   0  0  0  0  0  0  0  0  0  0  0  0
   -6.6029    5.4511  -14.3861 C   0  0  0  0  0  0  0  0  0  0  0  0
   -5.8683    4.6470  -13.3548 C   0  0  0  0  0  0  0  0  0  0  0  0
   -4.5246    3.9806  -13.3717 N   0  0  0  0  0  0  0  0  0  0  0  0
   -3.5557    3.9789  -14.5168 H   0  0  0  0  0  0  0  0  0  0  0  0
   -8.4802    4.6935  -10.3671 N   0  0  0  0  0  0  0  0  0  0  0  0
   -8.2617    5.7601   -9.3353 C   0  0  0  0  0  0  0  0  0  0  0  0
   -8.7507    5.8044   -7.9179 C   0  0  0  0  0  0  0  0  0  0  0  0
   -9.5791    4.7929   -7.1824 O   0  0  0  0  0  0  0  0  0  0  0  0
  -10.1229    3.4875   -7.6825 C   0  0  0  0  0  0  0  0  0  0  0  0
   -9.9727    2.8711   -9.0417 C   0  0  0  0  0  0  0  0  0  0  0  0
   -9.2416    3.4078  -10.2365 C   0  0  0  0  0  0  0  0  0  0  0  0
  -10.6119    3.5318   -6.2651 C   0  0  0  0  0  0  0  0  0  0  0  0
  -11.1009    3.5761   -4.8478 O   0  0  0  0  0  0  0  0  0  0  0  0
  -11.1792    2.3136   -4.0416 H   0  0  0  0  0  0  0  0  0  0  0  0
   -1.9007    1.7506  -11.2077 C   0  0  0  0  0  0  0  0  0  0  0  0
   -3.1103    2.5334  -11.6252 C   0  0  0  0  0  0  0  0  0  0  0  0
   -3.9634    1.7003  -10.7152 C   0  0  0  0  0  0  0  0  0  0  0  0
 21 22  1  0  0  0
 22 23  1  0  0  0
 22  1  1  0  0  0
  1  2  2  0  0  0
  2  3  1  0  0  0
  3  4  2  0  0  0
  4 11  1  0  0  0
 11 12  1  0  0  0
 12 13  1  0  0  0
 13 14  1  0  0  0
 14 15  1  0  0  0
 15 18  1  0  0  0
 18 19  1  0  0  0
 15 16  1  0  0  0
 16 17  1  0  0  0
  4  5  1  0  0  0
  5  6  2  0  0  0
  6  7  1  0  0  0
  7  8  2  0  0  0
  8  9  1  0  0  0
  9  1  1  0  0  0
  8  3  1  0  0  0
 17 11  1  0  0  0
 19 20  1  0  0  0
  9 10  1  0  0  0
M  END
> <minimizedAffinity>
-6.30283

$$$$
mol_9


 23 25  0  0  0  0  0  0  0  0999 V2000
   -4.6759    3.3579  -12.3896 C   0  0  0  0  0  0  0  0  0  0  0  0
   -5.0717    3.9450  -13.7119 N   0  0  0  0  0  0  0  0  0  0  0  0
   -6.2215    4.8796  -13.4786 C   0  0  0  0  0  0  0  0  0  0  0  0
   -7.0225    5.7380  -14.4121 C   0  0  0  0  0  0  0  0  0  0  0  0
   -8.1385    6.5870  -13.8790 C   0  0  0  0  0  0  0  0  0  0  0  0
   -8.4533    6.5774  -12.4125 C   0  0  0  0  0  0  0  0  0  0  0  0
   -7.6523    5.7189  -11.4790 C   0  0  0  0  0  0  0  0  0  0  0  0
   -6.5364    4.8700  -12.0121 C   0  0  0  0  0  0  0  0  0  0  0  0
   -5.5811    3.9295  -11.3390 N   0  0  0  0  0  0  0  0  0  0  0  0
   -5.5386    3.6159   -9.8728 H   0  0  0  0  0  0  0  0  0  0  0  0
   -6.7077    5.7476  -15.8786 N   0  0  0  0  0  0  0  0  0  0  0  0
   -5.2941    6.0975  -16.2385 C   0  0  0  0  0  0  0  0  0  0  0  0
   -4.6718    6.1922  -17.6001 C   0  0  0  0  0  0  0  0  0  0  0  0
   -5.3093    5.9604  -18.9380 O   0  0  0  0  0  0  0  0  0  0  0  0
   -6.7266    5.5767  -19.2448 C   0  0  0  0  0  0  0  0  0  0  0  0
   -7.8564    5.3299  -18.2894 C   0  0  0  0  0  0  0  0  0  0  0  0
   -7.8479    5.4060  -16.7913 C   0  0  0  0  0  0  0  0  0  0  0  0
   -9.2652    5.0223  -17.0981 C   0  0  0  0  0  0  0  0  0  0  0  0
  -10.6825    4.6385  -17.4049 O   0  0  0  0  0  0  0  0  0  0  0  0
  -11.1233    3.2129  -17.2522 H   0  0  0  0  0  0  0  0  0  0  0  0
   -2.4624    1.3864  -11.9272 C   0  0  0  0  0  0  0  0  0  0  0  0
   -3.5691    2.3721  -12.1584 C   0  0  0  0  0  0  0  0  0  0  0  0
   -3.4918    2.1129  -13.6338 C   0  0  0  0  0  0  0  0  0  0  0  0
 21 22  1  0  0  0
 22 23  1  0  0  0
 22  1  1  0  0  0
  1  2  2  0  0  0
  2  3  1  0  0  0
  3  4  2  0  0  0
  4 11  1  0  0  0
 11 12  1  0  0  0
 12 13  1  0  0  0
 13 14  1  0  0  0
 14 15  1  0  0  0
 15 16  1  0  0  0
 16 17  1  0  0  0
 17 18  1  0  0  0
 18 19  1  0  0  0
  4  5  1  0  0  0
  5  6  2  0  0  0
  6  7  1  0  0  0
  7  8  2  0  0  0
  8  9  1  0  0  0
  9  1  1  0  0  0
  8  3  1  0  0  0
 17 11  1  0  0  0
 19 20  1  0  0  0
  9 10  1  0  0  0
M  END
> <minimizedAffinity>
-6.09659

$$$$
mol_9


 23 25  0  0  0  0  0  0  0  0999 V2000
   -5.0812    6.1411  -18.4978 C   0  0  0  0  0  0  0  0  0  0  0  0
   -5.4690    6.1777  -17.0493 N   0  0  0  0  0  0  0  0  0  0  0  0
   -6.8974    5.7329  -16.9403 C   0  0  0  0  0  0  0  0  0  0  0  0
   -7.8112    5.5714  -15.7619 C   0  0  0  0  0  0  0  0  0  0  0  0
   -9.2202    5.0983  -15.9647 C   0  0  0  0  0  0  0  0  0  0  0  0
   -9.7152    4.7868  -17.3459 C   0  0  0  0  0  0  0  0  0  0  0  0
   -8.8014    4.9484  -18.5244 C   0  0  0  0  0  0  0  0  0  0  0  0
   -7.3925    5.4215  -18.3216 C   0  0  0  0  0  0  0  0  0  0  0  0
   -6.2700    5.6737  -19.2841 N   0  0  0  0  0  0  0  0  0  0  0  0
   -6.3265    5.4907  -20.7719 H   0  0  0  0  0  0  0  0  0  0  0  0
   -7.3161    5.8829  -14.3806 N   0  0  0  0  0  0  0  0  0  0  0  0
   -6.1124    5.1090  -13.9308 C   0  0  0  0  0  0  0  0  0  0  0  0
   -5.3855    5.1881  -12.6211 C   0  0  0  0  0  0  0  0  0  0  0  0
   -5.6828    6.0608  -11.4377 O   0  0  0  0  0  0  0  0  0  0  0  0
   -6.7803    7.0697  -11.2718 C   0  0  0  0  0  0  0  0  0  0  0  0
   -7.8517    7.4552  -12.2484 C   0  0  0  0  0  0  0  0  0  0  0  0
   -8.0901    6.9270  -13.6319 C   0  0  0  0  0  0  0  0  0  0  0  0
   -9.1876    7.9359  -13.4661 C   0  0  0  0  0  0  0  0  0  0  0  0
  -10.2852    8.9448  -13.3002 O   0  0  0  0  0  0  0  0  0  0  0  0
  -11.7003    8.4880  -13.1027 H   0  0  0  0  0  0  0  0  0  0  0  0
   -2.3991    6.8740  -19.6244 C   0  0  0  0  0  0  0  0  0  0  0  0
   -3.7402    6.5075  -19.0611 C   0  0  0  0  0  0  0  0  0  0  0  0
   -3.5896    5.1183  -19.6063 C   0  0  0  0  0  0  0  0  0  0  0  0
 21 22  1  0  0  0
 22 23  1  0  0  0
 22  1  1  0  0  0
  1  2  2  0  0  0
  2  3  1  0  0  0
  3  4  2  0  0  0
  4 11  1  0  0  0
 11 12  1  0  0  0
 12 13  1  0  0  0
 13 14  1  0  0  0
 14 15  1  0  0  0
 15 16  1  0  0  0
 16 17  1  0  0  0
 17 18  1  0  0  0
 18 19  1  0  0  0
  4  5  1  0  0  0
  5  6  2  0  0  0
  6  7  1  0  0  0
  7  8  2  0  0  0
  8  9  1  0  0  0
  9  1  1  0  0  0
  8  3  1  0  0  0
 17 11  1  0  0  0
 19 20  1  0  0  0
  9 10  1  0  0  0
M  END
> <minimizedAffinity>
-5.97534

$$$$
mol_9


 23 25  0  0  0  0  0  0  0  0999 V2000
   -8.8631    5.4379  -15.2105 C   0  0  0  0  0  0  0  0  0  0  0  0
   -7.8452    4.7703  -14.3339 N   0  0  0  0  0  0  0  0  0  0  0  0
   -7.7164    5.5769  -13.0759 C   0  0  0  0  0  0  0  0  0  0  0  0
   -6.8659    5.4002  -11.8530 C   0  0  0  0  0  0  0  0  0  0  0  0
   -6.9537    6.3897  -10.7290 C   0  0  0  0  0  0  0  0  0  0  0  0
   -7.8919    7.5558  -10.8279 C   0  0  0  0  0  0  0  0  0  0  0  0
   -8.7424    7.7325  -12.0509 C   0  0  0  0  0  0  0  0  0  0  0  0
   -8.6546    6.7431  -13.1748 C   0  0  0  0  0  0  0  0  0  0  0  0
   -9.3633    6.6571  -14.4941 N   0  0  0  0  0  0  0  0  0  0  0  0
  -10.3916    7.6212  -15.0069 H   0  0  0  0  0  0  0  0  0  0  0  0
   -5.9277    4.2340  -11.7540 N   0  0  0  0  0  0  0  0  0  0  0  0
   -6.3292    3.1555  -10.7919 C   0  0  0  0  0  0  0  0  0  0  0  0
   -5.6142    1.8772  -10.4683 C   0  0  0  0  0  0  0  0  0  0  0  0
   -4.3211    1.3616  -11.0271 O   0  0  0  0  0  0  0  0  0  0  0  0
   -3.4237    1.9970  -12.0473 C   0  0  0  0  0  0  0  0  0  0  0  0
   -3.5977    3.3050  -12.7608 C   0  0  0  0  0  0  0  0  0  0  0  0
   -4.7121    4.3005  -12.6302 C   0  0  0  0  0  0  0  0  0  0  0  0
   -3.8147    4.9360  -13.6504 C   0  0  0  0  0  0  0  0  0  0  0  0
   -2.9173    5.5714  -14.6707 O   0  0  0  0  0  0  0  0  0  0  0  0
   -3.3266    6.8522  -15.3357 H   0  0  0  0  0  0  0  0  0  0  0  0
   -9.7437    4.4994  -17.9204 C   0  0  0  0  0  0  0  0  0  0  0  0
   -9.3034    4.9686  -16.5654 C   0  0  0  0  0  0  0  0  0  0  0  0
   -7.9764    5.3725  -17.1365 C   0  0  0  0  0  0  0  0  0  0  0  0
 21 22  1  0  0  0
 22 23  1  0  0  0
 22  1  1  0  0  0
  1  2  2  0  0  0
  2  3  1  0  0  0
  3  4  2  0  0  0
  4 11  1  0  0  0
 11 12  1  0  0  0
 12 13  1  0  0  0
 13 14  1  0  0  0
 14 15  1  0  0  0
 15 16  1  0  0  0
 16 17  1  0  0  0
 17 18  1  0  0  0
 18 19  1  0  0  0
  4  5  1  0  0  0
  5  6  2  0  0  0
  6  7  1  0  0  0
  7  8  2  0  0  0
  8  9  1  0  0  0
  9  1  1  0  0  0
  8  3  1  0  0  0
 17 11  1  0  0  0
 19 20  1  0  0  0
  9 10  1  0  0  0
M  END
> <minimizedAffinity>
-5.94057

$$$$
