mol_1
     RDKit          3D

 23 25  0  0  0  0  0  0  0  0999 V2000
   -7.8703    5.0613  -11.7137 C   0  0  0  0  0  0  0  0  0  0  0  0
   -8.6285    5.9167  -12.6850 C   0  0  0  0  0  0  0  0  0  0  0  0
   -8.0650    6.1822  -14.0494 C   0  0  0  0  0  0  0  0  0  0  0  0
   -6.7430    5.5923  -14.4427 C   0  0  0  0  0  0  0  0  0  0  0  0
   -5.9848    4.7369  -13.4715 C   0  0  0  0  0  0  0  0  0  0  0  0
   -4.6684    4.0253  -13.5758 N   0  0  0  0  0  0  0  0  0  0  0  0
   -4.4185    3.3201  -12.2758 C   0  0  0  0  0  0  0  0  0  0  0  0
   -5.5803    3.5958  -11.3680 N   0  0  0  0  0  0  0  0  0  0  0  0
   -6.5484    4.4714  -12.1070 C   0  0  0  0  0  0  0  0  0  0  0  0
  -10.4633    4.2538   -4.8326 C   0  0  0  0  0  0  0  0  0  0  0  0
   -9.7260    5.2300   -5.7006 C   0  0  0  0  0  0  0  0  0  0  0  0
   -9.2873    6.5501   -5.1394 O   0  0  0  0  0  0  0  0  0  0  0  0
   -9.4274    4.8861   -7.1298 N   0  0  0  0  0  0  0  0  0  0  0  0
   -8.6862    5.9315   -7.9095 C   0  0  0  0  0  0  0  0  0  0  0  0
   -8.2440    5.8914   -9.3422 C   0  0  0  0  0  0  0  0  0  0  0  0
   -8.4339    4.7958  -10.3492 N   0  0  0  0  0  0  0  0  0  0  0  0
   -9.1128    3.4700  -10.1721 C   0  0  0  0  0  0  0  0  0  0  0  0
   -9.7695    2.9123   -8.9443 C   0  0  0  0  0  0  0  0  0  0  0  0
   -9.9096    3.5426   -7.5903 N   0  0  0  0  0  0  0  0  0  0  0  0
  -10.6265    2.7204   -6.5608 C   0  0  0  0  0  0  0  0  0  0  0  0
   -3.2175    2.4856  -11.9421 C   0  0  0  0  0  0  0  0  0  0  0  0
   -2.0165    1.6512  -11.6084 C   0  0  0  0  0  0  0  0  0  0  0  0
   -3.1494    2.0147  -13.3646 C   0  0  0  0  0  0  0  0  0  0  0  0
 10 11  1  0
 11 12  2  0
 11 13  1  0
 13 14  1  0
 14 15  1  0
 15 16  1  0
 16  1  1  0
  1  2  2  0
  2  3  1  0
  3  4  2  0
  4  5  1  0
  5  6  1  0
  6  7  1  0
  7 21  1  0
 21 22  1  0
 21 23  1  0
  7  8  2  0
  8  9  1  0
 16 17  1  0
 17 18  1  0
 18 19  1  0
 19 20  1  0
 19 13  1  0
  9  1  1  0
  9  5  2  0
M  END
>  <minimizedAffinity>  (1) 
-6.84315

$$$$
mol_8
     RDKit          3D

 21 23  0  0  0  0  0  0  0  0999 V2000
   -8.2521    5.2806  -16.4428 C   0  0  0  0  0  0  0  0  0  0  0  0
   -8.2290    5.0582  -14.9595 N   0  0  0  0  0  0  0  0  0  0  0  0
   -6.8760    5.4599  -14.4516 C   0  0  0  0  0  0  0  0  0  0  0  0
   -6.2794    5.4579  -13.0754 C   0  0  0  0  0  0  0  0  0  0  0  0
   -4.8695    5.9265  -12.8684 C   0  0  0  0  0  0  0  0  0  0  0  0
   -4.0564    6.3972  -14.0377 C   0  0  0  0  0  0  0  0  0  0  0  0
   -4.6531    6.3991  -15.4140 C   0  0  0  0  0  0  0  0  0  0  0  0
   -6.0628    5.9305  -15.6209 C   0  0  0  0  0  0  0  0  0  0  0  0
   -6.9133    5.8197  -16.8515 N   0  0  0  0  0  0  0  0  0  0  0  0
   -7.0925    4.9872  -11.9060 N   0  0  0  0  0  0  0  0  0  0  0  0
   -6.6576    5.4964  -10.5638 C   0  0  0  0  0  0  0  0  0  0  0  0
   -7.2558    5.2138   -9.2176 C   0  0  0  0  0  0  0  0  0  0  0  0
   -8.4367    4.3521   -8.8811 O   0  0  0  0  0  0  0  0  0  0  0  0
   -9.3110    3.5603   -9.8078 C   0  0  0  0  0  0  0  0  0  0  0  0
   -9.2203    3.4347  -11.2998 C   0  0  0  0  0  0  0  0  0  0  0  0
   -8.2330    4.0697  -12.2336 C   0  0  0  0  0  0  0  0  0  0  0  0
   -9.9092    3.2777   -8.4616 C   0  0  0  0  0  0  0  0  0  0  0  0
  -10.5073    2.9950   -7.1154 O   0  0  0  0  0  0  0  0  0  0  0  0
  -10.5690    4.7417  -18.2708 C   0  0  0  0  0  0  0  0  0  0  0  0
   -9.4105    5.0111  -17.3568 C   0  0  0  0  0  0  0  0  0  0  0  0
   -8.4860    5.0421  -18.5376 C   0  0  0  0  0  0  0  0  0  0  0  0
 19 20  1  0
 20 21  1  0
 20  1  1  0
  1  2  2  0
  2  3  1  0
  3  4  2  0
  4 10  1  0
 10 11  1  0
 11 12  1  0
 12 13  1  0
 13 14  1  0
 14 17  1  0
 17 18  1  0
 14 15  1  0
 15 16  1  0
  4  5  1  0
  5  6  2  0
  6  7  1  0
  7  8  2  0
  8  9  1  0
  9  1  1  0
  8  3  1  0
 16 10  1  0
M  END
>  <minimizedAffinity>  (2) 
-6.68444

$$$$
mol_9
     RDKit          3D

 21 23  0  0  0  0  0  0  0  0999 V2000
   -4.6759    3.3579  -12.3896 C   0  0  0  0  0  0  0  0  0  0  0  0
   -5.0717    3.9450  -13.7119 N   0  0  0  0  0  0  0  0  0  0  0  0
   -6.2215    4.8796  -13.4786 C   0  0  0  0  0  0  0  0  0  0  0  0
   -7.0225    5.7380  -14.4121 C   0  0  0  0  0  0  0  0  0  0  0  0
   -8.1385    6.5870  -13.8790 C   0  0  0  0  0  0  0  0  0  0  0  0
   -8.4533    6.5774  -12.4125 C   0  0  0  0  0  0  0  0  0  0  0  0
   -7.6523    5.7189  -11.4790 C   0  0  0  0  0  0  0  0  0  0  0  0
   -6.5364    4.8700  -12.0121 C   0  0  0  0  0  0  0  0  0  0  0  0
   -5.5811    3.9295  -11.3390 N   0  0  0  0  0  0  0  0  0  0  0  0
   -6.7077    5.7476  -15.8786 N   0  0  0  0  0  0  0  0  0  0  0  0
   -5.2941    6.0975  -16.2385 C   0  0  0  0  0  0  0  0  0  0  0  0
   -4.6718    6.1922  -17.6001 C   0  0  0  0  0  0  0  0  0  0  0  0
   -5.3093    5.9604  -18.9380 O   0  0  0  0  0  0  0  0  0  0  0  0
   -6.7266    5.5767  -19.2448 C   0  0  0  0  0  0  0  0  0  0  0  0
   -7.8564    5.3299  -18.2894 C   0  0  0  0  0  0  0  0  0  0  0  0
   -7.8479    5.4060  -16.7913 C   0  0  0  0  0  0  0  0  0  0  0  0
   -9.2652    5.0223  -17.0981 C   0  0  0  0  0  0  0  0  0  0  0  0
  -10.6825    4.6385  -17.4049 O   0  0  0  0  0  0  0  0  0  0  0  0
   -2.4624    1.3864  -11.9272 C   0  0  0  0  0  0  0  0  0  0  0  0
   -3.5691    2.3721  -12.1584 C   0  0  0  0  0  0  0  0  0  0  0  0
   -3.4918    2.1129  -13.6338 C   0  0  0  0  0  0  0  0  0  0  0  0
 19 20  1  0
 20 21  1  0
 20  1  1  0
  1  2  2  0
  2  3  1  0
  3  4  2  0
  4 10  1  0
 10 11  1  0
 11 12  1  0
 12 13  1  0
 13 14  1  0
 14 15  1  0
 15 16  1  0
 16 17  1  0
 17 18  1  0
  4  5  1  0
  5  6  2  0
  6  7  1  0
  7  8  2  0
  8  9  1  0
  9  1  1  0
  8  3  1  0
 16 10  1  0
M  END
>  <minimizedAffinity>  (3) 
-6.09659

$$$$
