mol_1
 OpenBabel10312515053D

 48 50  0  0  0  0  0  0  0  0999 V2000
   -7.8703    5.0613  -11.7137 C   0  0  0  0  0  0  0  0  0  0  0  0
   -8.6285    5.9167  -12.6850 C   0  0  0  0  0  0  0  0  0  0  0  0
   -8.0650    6.1822  -14.0494 C   0  0  0  0  0  0  0  0  0  0  0  0
   -6.7430    5.5923  -14.4427 C   0  0  0  0  0  0  0  0  0  0  0  0
   -5.9848    4.7369  -13.4715 C   0  0  0  0  0  0  0  0  0  0  0  0
   -4.6684    4.0253  -13.5758 N   0  0  0  0  0  0  0  0  0  0  0  0
   -4.4185    3.3201  -12.2758 C   0  0  0  0  0  0  0  0  0  0  0  0
   -5.5803    3.5958  -11.3680 N   0  0  0  0  0  0  0  0  0  0  0  0
   -6.5484    4.4714  -12.1070 C   0  0  0  0  0  0  0  0  0  0  0  0
  -10.4633    4.2538   -4.8326 C   0  0  0  0  0  0  0  0  0  0  0  0
   -9.7260    5.2300   -5.7006 C   0  0  0  0  0  0  0  0  0  0  0  0
   -9.2873    6.5501   -5.1394 O   0  0  0  0  0  0  0  0  0  0  0  0
   -9.4274    4.8861   -7.1298 N   0  0  0  0  0  0  0  0  0  0  0  0
   -8.6862    5.9315   -7.9095 C   0  0  0  0  0  0  0  0  0  0  0  0
   -8.2440    5.8914   -9.3422 C   0  0  0  0  0  0  0  0  0  0  0  0
   -8.4339    4.7958  -10.3492 N   0  0  0  0  0  0  0  0  0  0  0  0
   -9.1128    3.4700  -10.1721 C   0  0  0  0  0  0  0  0  0  0  0  0
   -9.7695    2.9123   -8.9443 C   0  0  0  0  0  0  0  0  0  0  0  0
   -9.9096    3.5426   -7.5903 N   0  0  0  0  0  0  0  0  0  0  0  0
  -10.6265    2.7204   -6.5608 C   0  0  0  0  0  0  0  0  0  0  0  0
   -3.2175    2.4856  -11.9421 C   0  0  0  0  0  0  0  0  0  0  0  0
   -2.0165    1.6512  -11.6084 C   0  0  0  0  0  0  0  0  0  0  0  0
   -3.1494    2.0147  -13.3646 C   0  0  0  0  0  0  0  0  0  0  0  0
   -9.5379    6.3226  -12.4144 H   0  0  0  0  0  0  0  0  0  0  0  0
   -8.5867    6.7707  -14.7176 H   0  0  0  0  0  0  0  0  0  0  0  0
   -6.3552    5.7750  -15.3815 H   0  0  0  0  0  0  0  0  0  0  0  0
   -4.0730    4.0218  -14.3599 H   0  0  0  0  0  0  0  0  0  0  0  0
  -10.5842    4.6678   -3.8534 H   0  0  0  0  0  0  0  0  0  0  0  0
   -9.9064    3.3424   -4.7683 H   0  0  0  0  0  0  0  0  0  0  0  0
  -11.4252    4.0549   -5.2570 H   0  0  0  0  0  0  0  0  0  0  0  0
   -7.7849    6.0905   -7.3552 H   0  0  0  0  0  0  0  0  0  0  0  0
   -9.4802    6.6415   -8.0116 H   0  0  0  0  0  0  0  0  0  0  0  0
   -7.1847    6.0360   -9.2999 H   0  0  0  0  0  0  0  0  0  0  0  0
   -8.9461    6.5932   -9.7415 H   0  0  0  0  0  0  0  0  0  0  0  0
   -8.3639    2.7493  -10.4264 H   0  0  0  0  0  0  0  0  0  0  0  0
   -9.9952    3.6694  -10.7436 H   0  0  0  0  0  0  0  0  0  0  0  0
   -9.2553    1.9923   -8.7598 H   0  0  0  0  0  0  0  0  0  0  0  0
  -10.7881    2.9961   -9.2610 H   0  0  0  0  0  0  0  0  0  0  0  0
  -10.9247    1.7882   -6.9933 H   0  0  0  0  0  0  0  0  0  0  0  0
  -11.4925    3.2495   -6.2216 H   0  0  0  0  0  0  0  0  0  0  0  0
   -9.9737    2.5369   -5.7331 H   0  0  0  0  0  0  0  0  0  0  0  0
   -3.2661    2.8215  -10.9273 H   0  0  0  0  0  0  0  0  0  0  0  0
   -1.6851    1.1361  -12.4858 H   0  0  0  0  0  0  0  0  0  0  0  0
   -2.2757    0.9389  -10.8532 H   0  0  0  0  0  0  0  0  0  0  0  0
   -1.2319    2.2833  -11.2482 H   0  0  0  0  0  0  0  0  0  0  0  0
   -2.5305    2.6789  -13.9309 H   0  0  0  0  0  0  0  0  0  0  0  0
   -4.1340    2.0006  -13.7832 H   0  0  0  0  0  0  0  0  0  0  0  0
   -2.7351    1.0286  -13.3944 H   0  0  0  0  0  0  0  0  0  0  0  0
  1  2  2  0  0  0  0
  2  3  1  0  0  0  0
  2 24  1  0  0  0  0
  3  4  2  0  0  0  0
  3 25  1  0  0  0  0
  4  5  1  0  0  0  0
  4 26  1  0  0  0  0
  5  6  1  0  0  0  0
  6  7  1  0  0  0  0
  6 27  1  0  0  0  0
  7 21  1  0  0  0  0
  7  8  2  0  0  0  0
  8  9  1  0  0  0  0
  9  1  1  0  0  0  0
  9  5  2  0  0  0  0
 10 11  1  0  0  0  0
 10 28  1  0  0  0  0
 10 29  1  0  0  0  0
 10 30  1  0  0  0  0
 11 12  2  0  0  0  0
 11 13  1  0  0  0  0
 13 14  1  0  0  0  0
 14 15  1  0  0  0  0
 14 31  1  0  0  0  0
 14 32  1  0  0  0  0
 15 16  1  0  0  0  0
 15 33  1  0  0  0  0
 15 34  1  0  0  0  0
 16  1  1  0  0  0  0
 16 17  1  0  0  0  0
 17 18  1  0  0  0  0
 17 35  1  0  0  0  0
 17 36  1  0  0  0  0
 18 19  1  0  0  0  0
 18 37  1  0  0  0  0
 18 38  1  0  0  0  0
 19 20  1  0  0  0  0
 19 13  1  0  0  0  0
 20 39  1  0  0  0  0
 20 40  1  0  0  0  0
 20 41  1  0  0  0  0
 21 22  1  0  0  0  0
 21 23  1  0  0  0  0
 21 42  1  0  0  0  0
 22 43  1  0  0  0  0
 22 44  1  0  0  0  0
 22 45  1  0  0  0  0
 23 46  1  0  0  0  0
 23 47  1  0  0  0  0
 23 48  1  0  0  0  0
M  END
>  <minimizedAffinity>
-6.84315

$$$$
mol_8
 OpenBabel10312515053D

 44 46  0  0  0  0  0  0  0  0999 V2000
   -8.2521    5.2806  -16.4428 C   0  0  0  0  0  0  0  0  0  0  0  0
   -8.2290    5.0582  -14.9595 N   0  0  0  0  0  0  0  0  0  0  0  0
   -6.8760    5.4599  -14.4516 C   0  0  0  0  0  0  0  0  0  0  0  0
   -6.2794    5.4579  -13.0754 C   0  0  0  0  0  0  0  0  0  0  0  0
   -4.8695    5.9265  -12.8684 C   0  0  0  0  0  0  0  0  0  0  0  0
   -4.0564    6.3972  -14.0377 C   0  0  0  0  0  0  0  0  0  0  0  0
   -4.6531    6.3991  -15.4140 C   0  0  0  0  0  0  0  0  0  0  0  0
   -6.0628    5.9305  -15.6209 C   0  0  0  0  0  0  0  0  0  0  0  0
   -6.9133    5.8197  -16.8515 N   0  0  0  0  0  0  0  0  0  0  0  0
   -7.0925    4.9872  -11.9060 N   0  0  0  0  0  0  0  0  0  0  0  0
   -6.6576    5.4964  -10.5638 C   0  0  0  0  0  0  0  0  0  0  0  0
   -7.2558    5.2138   -9.2176 C   0  0  0  0  0  0  0  0  0  0  0  0
   -8.4367    4.3521   -8.8811 O   0  0  0  0  0  0  0  0  0  0  0  0
   -9.3110    3.5603   -9.8078 C   0  0  2  0  0  0  0  0  0  0  0  0
   -9.2203    3.4347  -11.2998 C   0  0  0  0  0  0  0  0  0  0  0  0
   -8.2330    4.0697  -12.2336 C   0  0  0  0  0  0  0  0  0  0  0  0
   -9.9092    3.2777   -8.4616 C   0  0  0  0  0  0  0  0  0  0  0  0
  -10.5073    2.9950   -7.1154 O   0  0  0  0  0  0  0  0  0  0  0  0
  -10.5690    4.7417  -18.2708 C   0  0  0  0  0  0  0  0  0  0  0  0
   -9.4105    5.0111  -17.3568 C   0  0  0  0  0  0  0  0  0  0  0  0
   -8.4860    5.0421  -18.5376 C   0  0  0  0  0  0  0  0  0  0  0  0
   -4.4590    5.9250  -11.9216 H   0  0  0  0  0  0  0  0  0  0  0  0
   -3.0865    6.7197  -13.8953 H   0  0  0  0  0  0  0  0  0  0  0  0
   -4.0936    6.7228  -16.2185 H   0  0  0  0  0  0  0  0  0  0  0  0
   -6.6407    6.0588  -17.7668 H   0  0  0  0  0  0  0  0  0  0  0  0
   -6.6961    6.5617  -10.6559 H   0  0  0  0  0  0  0  0  0  0  0  0
   -5.7628    4.9189  -10.4608 H   0  0  0  0  0  0  0  0  0  0  0  0
   -7.5081    6.1781   -8.8286 H   0  0  0  0  0  0  0  0  0  0  0  0
   -6.4850    4.5777   -8.8353 H   0  0  0  0  0  0  0  0  0  0  0  0
   -9.7266    3.1256  -10.6928 H   0  0  0  0  0  0  0  0  0  0  0  0
  -10.1747    3.7632  -11.6549 H   0  0  0  0  0  0  0  0  0  0  0  0
   -8.8570    2.4295  -11.3495 H   0  0  0  0  0  0  0  0  0  0  0  0
   -8.8345    4.6252  -12.9224 H   0  0  0  0  0  0  0  0  0  0  0  0
   -7.6650    3.1962  -12.4770 H   0  0  0  0  0  0  0  0  0  0  0  0
  -10.8746    3.1763   -8.9118 H   0  0  0  0  0  0  0  0  0  0  0  0
   -8.9439    3.3792   -8.0114 H   0  0  0  0  0  0  0  0  0  0  0  0
  -11.4613    2.8473   -7.2100 H   0  0  0  0  0  0  0  0  0  0  0  0
  -10.4184    3.8083  -18.7719 H   0  0  0  0  0  0  0  0  0  0  0  0
  -10.6429    5.5269  -18.9939 H   0  0  0  0  0  0  0  0  0  0  0  0
  -11.4721    4.6977  -17.6986 H   0  0  0  0  0  0  0  0  0  0  0  0
  -10.0700    4.9889  -16.5145 H   0  0  0  0  0  0  0  0  0  0  0  0
   -8.4215    6.0417  -18.9139 H   0  0  0  0  0  0  0  0  0  0  0  0
   -8.8632    4.3965  -19.3030 H   0  0  0  0  0  0  0  0  0  0  0  0
   -7.5138    4.7103  -18.2382 H   0  0  0  0  0  0  0  0  0  0  0  0
  1  2  2  0  0  0  0
  2  3  1  0  0  0  0
  3  4  2  0  0  0  0
  4 10  1  0  0  0  0
  4  5  1  0  0  0  0
  5  6  2  0  0  0  0
  5 22  1  0  0  0  0
  6  7  1  0  0  0  0
  6 23  1  0  0  0  0
  7  8  2  0  0  0  0
  7 24  1  0  0  0  0
  8  9  1  0  0  0  0
  8  3  1  0  0  0  0
  9  1  1  0  0  0  0
  9 25  1  0  0  0  0
 10 11  1  0  0  0  0
 11 12  1  0  0  0  0
 11 26  1  0  0  0  0
 11 27  1  0  0  0  0
 12 13  1  0  0  0  0
 12 28  1  0  0  0  0
 12 29  1  0  0  0  0
 13 14  1  0  0  0  0
 14 17  1  0  0  0  0
 14 15  1  0  0  0  0
 14 30  1  1  0  0  0
 15 16  1  0  0  0  0
 15 31  1  0  0  0  0
 15 32  1  0  0  0  0
 16 10  1  0  0  0  0
 16 33  1  0  0  0  0
 16 34  1  0  0  0  0
 17 18  1  0  0  0  0
 17 35  1  0  0  0  0
 17 36  1  0  0  0  0
 18 37  1  0  0  0  0
 19 20  1  0  0  0  0
 19 38  1  0  0  0  0
 19 39  1  0  0  0  0
 19 40  1  0  0  0  0
 20 21  1  0  0  0  0
 20  1  1  0  0  0  0
 20 41  1  0  0  0  0
 21 42  1  0  0  0  0
 21 43  1  0  0  0  0
 21 44  1  0  0  0  0
M  END
>  <minimizedAffinity>
-6.68444

$$$$
mol_9
 OpenBabel10312515053D

 44 46  0  0  0  0  0  0  0  0999 V2000
   -4.6759    3.3579  -12.3896 C   0  0  0  0  0  0  0  0  0  0  0  0
   -5.0717    3.9450  -13.7119 N   0  0  0  0  0  0  0  0  0  0  0  0
   -6.2215    4.8796  -13.4786 C   0  0  0  0  0  0  0  0  0  0  0  0
   -7.0225    5.7380  -14.4121 C   0  0  0  0  0  0  0  0  0  0  0  0
   -8.1385    6.5870  -13.8790 C   0  0  0  0  0  0  0  0  0  0  0  0
   -8.4533    6.5774  -12.4125 C   0  0  0  0  0  0  0  0  0  0  0  0
   -7.6523    5.7189  -11.4790 C   0  0  0  0  0  0  0  0  0  0  0  0
   -6.5364    4.8700  -12.0121 C   0  0  0  0  0  0  0  0  0  0  0  0
   -5.5811    3.9295  -11.3390 N   0  0  0  0  0  0  0  0  0  0  0  0
   -6.7077    5.7476  -15.8786 N   0  0  0  0  0  0  0  0  0  0  0  0
   -5.2941    6.0975  -16.2385 C   0  0  0  0  0  0  0  0  0  0  0  0
   -4.6718    6.1922  -17.6001 C   0  0  0  0  0  0  0  0  0  0  0  0
   -5.3093    5.9604  -18.9380 O   0  0  0  0  0  0  0  0  0  0  0  0
   -6.7266    5.5767  -19.2448 C   0  0  0  0  0  0  0  0  0  0  0  0
   -7.8564    5.3299  -18.2894 C   0  0  0  0  0  0  0  0  0  0  0  0
   -7.8479    5.4060  -16.7913 C   0  0  2  0  0  0  0  0  0  0  0  0
   -9.2652    5.0223  -17.0981 C   0  0  0  0  0  0  0  0  0  0  0  0
  -10.6825    4.6385  -17.4049 O   0  0  0  0  0  0  0  0  0  0  0  0
   -2.4624    1.3864  -11.9272 C   0  0  0  0  0  0  0  0  0  0  0  0
   -3.5691    2.3721  -12.1584 C   0  0  0  0  0  0  0  0  0  0  0  0
   -3.4918    2.1129  -13.6338 C   0  0  0  0  0  0  0  0  0  0  0  0
   -8.6896    7.1776  -14.5212 H   0  0  0  0  0  0  0  0  0  0  0  0
   -9.2210    7.1615  -12.0457 H   0  0  0  0  0  0  0  0  0  0  0  0
   -7.8689    5.7123  -10.4700 H   0  0  0  0  0  0  0  0  0  0  0  0
   -5.5532    3.7236  -10.3767 H   0  0  0  0  0  0  0  0  0  0  0  0
   -4.6989    5.3740  -15.7215 H   0  0  0  0  0  0  0  0  0  0  0  0
   -5.3296    7.1423  -16.0106 H   0  0  0  0  0  0  0  0  0  0  0  0
   -3.8542    5.5026  -17.5697 H   0  0  0  0  0  0  0  0  0  0  0  0
   -4.5783    7.2567  -17.6547 H   0  0  0  0  0  0  0  0  0  0  0  0
   -6.6434    4.6672  -19.8022 H   0  0  0  0  0  0  0  0  0  0  0  0
   -7.0593    6.5135  -19.6405 H   0  0  0  0  0  0  0  0  0  0  0  0
   -8.1769    4.3321  -18.5053 H   0  0  0  0  0  0  0  0  0  0  0  0
   -8.4235    6.2155  -18.4870 H   0  0  0  0  0  0  0  0  0  0  0  0
   -7.5243    5.5399  -15.7802 H   0  0  0  0  0  0  0  0  0  0  0  0
   -9.2348    5.6195  -17.9854 H   0  0  0  0  0  0  0  0  0  0  0  0
   -9.2956    4.4251  -16.2108 H   0  0  0  0  0  0  0  0  0  0  0  0
  -10.9620    5.0662  -18.2294 H   0  0  0  0  0  0  0  0  0  0  0  0
   -2.3262    0.7906  -12.8055 H   0  0  0  0  0  0  0  0  0  0  0  0
   -2.7151    0.7534  -11.1024 H   0  0  0  0  0  0  0  0  0  0  0  0
   -1.5564    1.9121  -11.7088 H   0  0  0  0  0  0  0  0  0  0  0  0
   -3.6242    2.5570  -11.1059 H   0  0  0  0  0  0  0  0  0  0  0  0
   -2.7945    2.7915  -14.0791 H   0  0  0  0  0  0  0  0  0  0  0  0
   -4.4575    2.2552  -14.0720 H   0  0  0  0  0  0  0  0  0  0  0  0
   -3.1682    1.1071  -13.8028 H   0  0  0  0  0  0  0  0  0  0  0  0
  1  2  2  0  0  0  0
  2  3  1  0  0  0  0
  3  4  2  0  0  0  0
  4 10  1  0  0  0  0
  4  5  1  0  0  0  0
  5  6  2  0  0  0  0
  5 22  1  0  0  0  0
  6  7  1  0  0  0  0
  6 23  1  0  0  0  0
  7  8  2  0  0  0  0
  7 24  1  0  0  0  0
  8  9  1  0  0  0  0
  8  3  1  0  0  0  0
  9  1  1  0  0  0  0
  9 25  1  0  0  0  0
 10 11  1  0  0  0  0
 11 12  1  0  0  0  0
 11 26  1  0  0  0  0
 11 27  1  0  0  0  0
 12 13  1  0  0  0  0
 12 28  1  0  0  0  0
 12 29  1  0  0  0  0
 13 14  1  0  0  0  0
 14 15  1  0  0  0  0
 14 30  1  0  0  0  0
 14 31  1  0  0  0  0
 15 16  1  0  0  0  0
 15 32  1  0  0  0  0
 15 33  1  0  0  0  0
 16 17  1  0  0  0  0
 16 10  1  0  0  0  0
 16 34  1  1  0  0  0
 17 18  1  0  0  0  0
 17 35  1  0  0  0  0
 17 36  1  0  0  0  0
 18 37  1  0  0  0  0
 19 20  1  0  0  0  0
 19 38  1  0  0  0  0
 19 39  1  0  0  0  0
 19 40  1  0  0  0  0
 20 21  1  0  0  0  0
 20  1  1  0  0  0  0
 20 41  1  0  0  0  0
 21 42  1  0  0  0  0
 21 43  1  0  0  0  0
 21 44  1  0  0  0  0
M  END
>  <minimizedAffinity>
-6.09659

$$$$
